
  EPA STORM WATER MANAGEMENT MODEL - VERSION 5.1 (Build 5.1.012)
  --------------------------------------------------------------

  Revised 4/21/2017 for revisions/extensions to EWRI 2017 in Sacramento using correct Philadelphia precipitation 
  Polygons for the sheds: Projected Coordinate System:NAD_1983_StatePlane_Pennsylvania_South_FIPS_3702_Feet 
  
  
  *********************
  Rainfall File Summary
  *********************
  Station    First        Last         Recording   Periods    Periods    Periods
  ID         Date         Date         Frequency  w/Precip    Missing    Malfunc.
  -------------------------------------------------------------------------------
  PHILADELPHIA 01/02/2004   12/29/2013      60 min      5998          0          0

  
  *********************************************************
  NOTE: The summary statistics displayed in this report are
  based on results found at every computational time step,  
  not just on results from each reporting time step.
  *********************************************************
  
  ****************
  Analysis Options
  ****************
  Flow Units ............... CFS
  Process Models:
    Rainfall/Runoff ........ YES
    RDII ................... NO
    Snowmelt ............... NO
    Groundwater ............ NO
    Flow Routing ........... YES
    Ponding Allowed ........ NO
    Water Quality .......... NO
  Infiltration Method ...... GREEN_AMPT
  Flow Routing Method ...... DYNWAVE
  Starting Date ............ 08/29/2012 00:00:00
  Ending Date .............. 09/05/2012 23:45:00
  Antecedent Dry Days ...... 0.0
  Report Time Step ......... 00:15:00
  Wet Time Step ............ 00:15:00
  Dry Time Step ............ 00:15:00
  Routing Time Step ........ 15.00 sec
  Variable Time Step ....... YES
  Maximum Trials ........... 8
  Number of Threads ........ 1
  Head Tolerance ........... 0.005000 ft
  
  
  **************************        Volume         Depth
  Runoff Quantity Continuity     acre-feet        inches
  **************************     ---------       -------
  Total Precipitation ......      1218.024         2.700
  Evaporation Loss .........        27.276         0.060
  Infiltration Loss ........       387.673         0.859
  Surface Runoff ...........       818.365         1.814
  Final Storage ............         1.530         0.003
  Continuity Error (%) .....        -1.381
  
  
  **************************        Volume        Volume
  Flow Routing Continuity        acre-feet      10^6 gal
  **************************     ---------     ---------
  Dry Weather Inflow .......         0.000         0.000
  Wet Weather Inflow .......       817.645       266.442
  Groundwater Inflow .......         0.000         0.000
  RDII Inflow ..............         0.000         0.000
  External Inflow ..........         0.000         0.000
  External Outflow .........       814.869       265.537
  Flooding Loss ............         0.000         0.000
  Evaporation Loss .........         0.081         0.026
  Exfiltration Loss ........         0.000         0.000
  Initial Stored Volume ....         0.001         0.000
  Final Stored Volume ......         1.632         0.532
  Continuity Error (%) .....         0.130
  
  
  *************************
  Highest Continuity Errors
  *************************
  Node TT14-306 (1.16%)
  
  
  ***************************
  Time-Step Critical Elements
  ***************************
  Link C17 (4.47%)
  
  
  ********************************
  Highest Flow Instability Indexes
  ********************************
  All links are stable.
  
  
  *************************
  Routing Time Step Summary
  *************************
  Minimum Time Step           :     0.50 sec
  Average Time Step           :    14.73 sec
  Maximum Time Step           :    15.00 sec
  Percent in Steady State     :    -0.00
  Average Iterations per Step :     2.01
  Percent Not Converging      :     0.14
  
  
  ***************************
  Subcatchment Runoff Summary
  ***************************
  
  --------------------------------------------------------------------------------------------------------
                            Total      Total      Total      Total      Total       Total     Peak  Runoff
                           Precip      Runon       Evap      Infil     Runoff      Runoff   Runoff   Coeff
  Subcatchment                 in         in         in         in         in    10^6 gal      CFS
  --------------------------------------------------------------------------------------------------------
  CHEWSTA_shed               2.70       0.00       0.05       0.87       1.82        0.25     4.33   0.673
  CHEWSTB_shed               2.70       0.00       0.02       1.66       1.06        0.25     6.77   0.392
  CLEARVIEW_shed             2.70       0.00       0.07       0.59       2.09        0.17     2.57   0.773
  T14-A1_shed                2.70       0.00       0.06       0.76       1.91        5.14    82.89   0.708
  T14-A2_shed                2.70       0.00       0.05       1.08       1.60        6.00   105.95   0.592
  T14-A3_shed                2.70       0.00       0.06       0.89       1.78        4.77    80.41   0.659
  T14-A4_shed                2.70       0.00       0.08       0.52       2.15        5.35    79.31   0.795
  T14-A5_shed                2.70       0.00       0.09       0.21       2.45        1.01    13.60   0.906
  T14-B_shed                 2.70       0.00       0.07       0.72       1.94       17.22   260.44   0.718
  T14-C1_shed                2.70       0.00       0.09       0.27       2.38        4.82    66.03   0.882
  T14-C2_shed                2.70       0.00       0.07       0.56       2.11        4.13    62.27   0.780
  T14-C3_shed                2.70       0.00       0.06       0.77       1.91        1.52    24.84   0.707
  T14-C4_shed                2.70       0.00       0.08       0.37       2.30        1.11    15.70   0.851
  T14-D_shed                 2.70       0.00       0.05       1.02       1.66        3.65    63.56   0.614
  T14-E_shed                 2.70       0.00       0.07       0.75       1.92        7.97   125.36   0.711
  T14-F_shed                 2.70       0.00       0.03       1.41       1.28        0.83    18.57   0.475
  T14-G_shed                 2.70       0.00       0.07       0.68       1.99        3.01    47.25   0.739
  T14-H_shed                 2.70       0.00       0.06       0.64       2.05        0.12     1.88   0.759
  T14-J_shed                 2.70       0.00       0.07       0.55       2.11        8.49   126.74   0.782
  T14-K1_shed                2.70       0.00       0.07       0.68       1.99        1.38    21.71   0.739
  T14-K2_shed                2.70       0.00       0.08       0.39       2.27        1.59    22.63   0.842
  T14-K3_shed                2.70       0.00       0.06       0.85       1.82       16.18   258.71   0.673
  T14-L1_shed                2.70       0.00       0.09       0.20       2.46        0.46     6.10   0.912
  T14-L2_shed                2.70       0.00       0.07       0.67       2.00        5.72    89.24   0.741
  T14-M1_shed                2.70       0.00       0.07       0.59       2.08        3.80    57.76   0.770
  T14-M2_shed                2.70       0.00       0.07       0.68       1.99        4.18    65.84   0.737
  T14-P1_shed                2.70       0.00       0.04       1.31       1.38        3.99    80.34   0.510
  T14-P2_shed                2.70       0.00       0.05       1.03       1.66        1.63    29.89   0.614
  T14-P3_shed                2.70       0.00       0.06       0.94       1.74        4.46    77.23   0.643
  T14-P4_shed                2.70       0.00       0.05       0.97       1.72        2.82    49.84   0.635
  T14-P5_shed                2.70       0.00       0.05       1.12       1.57        1.32    25.39   0.581
  T14-R1_shed                2.70       0.00       0.07       0.70       1.98        3.95    62.49   0.732
  T14-R2_shed                2.70       0.00       0.05       1.00       1.67        2.93    51.75   0.620
  T14-R3_shed                2.70       0.00       0.07       0.61       2.06        1.67    25.63   0.762
  T14-R4_shed                2.70       0.00       0.07       0.54       2.14        1.36    20.35   0.791
  T14-R5_shed                2.70       0.00       0.06       0.93       1.75        3.42    58.70   0.647
  T14-R6_shed                2.70       0.00       0.05       1.03       1.65        2.72    48.07   0.611
  T14-R7_shed                2.70       0.00       0.05       1.12       1.56        3.13    57.30   0.579
  T14-T_shed                 2.70       0.00       0.08       0.39       2.28        0.37     5.31   0.844
  T14-U_shed                 2.70       0.00       0.07       0.43       2.24        0.82    11.81   0.829
  TT14-262A_shed             2.70       0.00       0.06       0.83       1.85        4.78    79.25   0.684
  TT14-263A_shed             2.70       0.00       0.04       1.21       1.48        0.61    12.37   0.548
  TT14-264A_shed             2.70       0.00       0.06       0.72       1.96        1.19    19.08   0.727
  TT14-264B_shed             2.70       0.00       0.05       0.82       1.87        0.12     1.99   0.694
  TT14-264C_shed             2.70       0.00       0.06       0.92       1.76        1.24    21.71   0.651
  TT14-264D_shed             2.70       0.00       0.06       0.72       1.95        1.17    18.84   0.723
  TT14-264E_shed             2.70       0.00       0.07       0.40       2.27        0.16     2.26   0.842
  TT14-266A_shed             2.70       0.00       0.07       0.36       2.32        0.09     1.32   0.858
  TT14-266B_shed             2.70       0.00       0.08       0.19       2.47        0.25     3.30   0.916
  TT14-270A_shed             2.70       0.00       0.05       0.88       1.81        0.22     3.80   0.671
  TT14-270B_shed             2.70       0.00       0.04       1.26       1.45        0.12     2.55   0.535
  TT14-272A_shed             2.70       0.00       0.05       1.07       1.63        0.15     2.84   0.605
  TT14-274A_shed             2.70       0.00       0.08       0.27       2.40        0.14     1.84   0.888
  TT14-274B_shed             2.70       0.00       0.06       0.76       1.92        0.58     9.46   0.711
  TT14-274C_shed             2.70       0.00       0.06       0.74       1.94        0.88    14.22   0.717
  TT14-278A_shed             2.70       0.00       0.06       0.62       2.06        0.32     4.94   0.762
  TT14-278B_shed             2.70       0.00       0.06       0.81       1.87        0.64    10.75   0.694
  TT14-278C_shed             2.70       0.00       0.08       0.34       2.33        0.17     2.35   0.862
  TT14-280A_shed             2.70       0.00       0.06       0.72       1.97        0.10     1.58   0.728
  TT14-282A_shed             2.70       0.00       0.06       0.70       1.97        2.13    33.93   0.730
  TT14-284A_shed             2.70       0.00       0.06       0.78       1.91        0.15     2.50   0.707
  TT14-284B_shed             2.70       0.00       0.06       0.58       2.10        0.03     0.48   0.779
  TT14-284C_shed             2.70       0.00       0.08       0.27       2.40        0.06     0.84   0.888
  TT14-286A_shed             2.70       0.00       0.07       0.41       2.26        0.16     2.24   0.836
  TT14-288A_shed             2.70       0.00       0.08       0.32       2.35        0.03     0.38   0.870
  TT14-288B_shed             2.70       0.00       0.07       0.56       2.12        0.38     5.72   0.785
  TT14-288C_shed             2.70       0.00       0.05       1.04       1.66        0.14     2.67   0.616
  TT14-291A_shed             2.70       0.00       0.06       0.79       1.89        0.93    15.34   0.700
  TT14-291B_shed             2.70       0.00       0.06       0.66       2.02        0.29     4.58   0.748
  TT14-291C_shed             2.70       0.00       0.09       0.15       2.50        0.04     0.52   0.926
  TT14-291D_shed             2.70       0.00       0.03       1.55       1.14        2.64    60.20   0.423
  TT14-294A_shed             2.70       0.00       0.06       0.77       1.92        0.10     1.57   0.711
  TT14-294B_shed             2.70       0.00       0.06       0.70       1.99        0.04     0.61   0.738
  TT14-294C_shed             2.70       0.00       0.05       0.95       1.74        0.67    11.83   0.644
  TT14-296A_shed             2.70       0.00       0.08       0.35       2.33        0.06     0.85   0.862
  TT14-296B_shed             2.70       0.00       0.06       0.94       1.73        8.77   146.21   0.640
  TT14-502_shed              2.70       0.00       0.04       1.31       1.38        4.21    84.96   0.511
  TT14-524_shed              2.70       0.00       0.07       0.66       2.01        4.65    72.44   0.745
  TT14-530_shed              2.70       0.00       0.07       0.52       2.14        5.23    77.75   0.794
  TT14-544_shed              2.70       0.00       0.07       0.61       2.07        1.74    26.81   0.766
  TT14-552A_shed             2.70       0.00       0.07       0.64       2.03        2.64    41.06   0.752
  TT14-552B_shed             2.70       0.00       0.06       0.90       1.77        5.08    84.47   0.657
  TT14-554_shed              2.70       0.00       0.06       0.73       1.95        0.66    10.71   0.721
  TT14-558_shed              2.70       0.00       0.07       0.74       1.92        6.35    99.99   0.712
  TT14-560_shed              2.70       0.00       0.06       0.76       1.92        1.52    24.70   0.710
  TT14-574_shed              2.70       0.00       0.05       1.03       1.64        6.70   116.30   0.609
  TT14-584_shed              2.70       0.00       0.06       0.90       1.77        6.92   115.55   0.656
  TT14-602A_shed             2.70       0.00       0.08       0.31       2.36        0.12     1.64   0.873
  TT14-602B_shed             2.70       0.00       0.05       1.10       1.60        0.28     5.27   0.592
  TT14-602C_shed             2.70       0.00       0.05       1.14       1.54        1.53    29.59   0.571
  TT14-602D_shed             2.70       0.00       0.06       0.86       1.83        0.19     3.25   0.679
  TT14-606A_shed             2.70       0.00       0.06       0.72       1.96        0.16     2.49   0.727
  TT14-606B_shed             2.70       0.00       0.06       0.70       1.98        0.29     4.56   0.734
  TT14-610A_shed             2.70       0.00       0.06       0.64       2.05        0.03     0.53   0.758
  TT14-610B_shed             2.70       0.00       0.07       0.55       2.14        0.05     0.73   0.791
  TT14-610C_shed             2.70       0.00       0.05       1.02       1.66        2.40    43.61   0.614
  TT14-610D_shed             2.70       0.00       0.05       0.98       1.71        0.17     3.03   0.634
  TT14-612A_shed             2.70       0.00       0.05       0.88       1.81        0.12     2.09   0.671
  TT14-612B_shed             2.70       0.00       0.06       0.75       1.95        0.04     0.66   0.721
  TT14-612C_shed             2.70       0.00       0.06       0.63       2.05        0.33     5.13   0.758
  TT14-614A_shed             2.70       0.00       0.05       0.99       1.71        0.11     1.96   0.633
  TT14-614B_shed             2.70       0.00       0.06       0.66       2.03        0.05     0.75   0.753
  TT14-614C_shed             2.70       0.00       0.07       0.55       2.13        0.25     3.74   0.789
  TT14-616A_shed             2.70       0.00       0.06       0.66       2.02        0.13     2.00   0.750
  TT14-616B_shed             2.70       0.00       0.06       0.65       2.03        0.22     3.44   0.750
  TT14-618A_shed             2.70       0.00       0.07       0.66       2.02        0.77    12.11   0.749
  TT14-620A_shed             2.70       0.00       0.06       0.69       1.99        0.19     2.96   0.738
  TT14-620B_shed             2.70       0.00       0.05       1.01       1.67        4.18    73.84   0.618
  TT14-622A_shed             2.70       0.00       0.06       0.70       1.98        0.23     3.60   0.735
  TT14-624A_shed             2.70       0.00       0.06       0.69       1.99        0.19     2.96   0.738
  TT14-630A_shed             2.70       0.00       0.05       0.94       1.75        0.37     6.48   0.650
  TT14-636A_shed             2.70       0.00       0.06       0.63       2.05        0.06     0.89   0.760
  TT14-636B_shed             2.70       0.00       0.05       0.90       1.79        0.28     4.83   0.661
  TT14-639A_shed             2.70       0.00       0.06       0.68       2.01        0.10     1.50   0.745
  TT14-639B_shed             2.70       0.00       0.05       1.07       1.62        0.43     8.14   0.601
  TT14-639C_shed             2.70       0.00       0.05       1.02       1.68        0.46     8.44   0.621
  TT14-640A_shed             2.70       0.00       0.04       1.09       1.61        0.15     2.88   0.595
  TT14-642A_shed             2.70       0.00       0.04       1.32       1.37        0.88    18.84   0.507
  TT14-642B_shed             2.70       0.00       0.06       0.80       1.89        0.11     1.82   0.701
  TT14-642C_shed             2.70       0.00       0.05       1.07       1.63        0.30     5.58   0.604
  TT14-644A_shed             2.70       0.00       0.04       1.23       1.47        0.14     2.81   0.544
  TT14-646A_shed             2.70       0.00       0.06       0.96       1.72        3.43    59.73   0.637
  TT14-648A_shed             2.70       0.00       0.05       1.19       1.50        1.96    37.99   0.556
  TT14-648B_shed             2.70       0.00       0.05       0.87       1.83        0.18     3.00   0.676
  TT14-658A_shed             2.70       0.00       0.05       1.11       1.58        0.94    18.04   0.584
  TT14-658B_shed             2.70       0.00       0.05       0.92       1.77        0.46     8.12   0.654
  TT14-660A_shed             2.70       0.00       0.05       1.06       1.64        0.15     2.78   0.607
  TT14-666A_shed             2.70       0.00       0.06       0.82       1.86        0.35     5.82   0.690
  TT14-668A_shed             2.70       0.00       0.04       1.21       1.50        0.16     3.21   0.554
  TT14-676A_shed             2.70       0.00       0.05       1.04       1.66        0.18     3.32   0.615
  TT14-684A_shed             2.70       0.00       0.05       1.08       1.62        0.14     2.65   0.601
  TT14-684B_shed             2.70       0.00       0.06       0.80       1.89        0.06     1.01   0.702
  TT14-688A_shed             2.70       0.00       0.05       0.94       1.76        0.08     1.36   0.652
  TT14-688B_shed             2.70       0.00       0.06       0.61       2.07        0.04     0.66   0.768
  TT14-688C_shed             2.70       0.00       0.06       0.74       1.95        0.17     2.79   0.721
  TT14-690A_shed             2.70       0.00       0.05       0.95       1.74        0.24     4.23   0.644
  TT14-690B_shed             2.70       0.00       0.05       1.01       1.69        0.05     0.89   0.625
  TT14-692A_shed             2.70       0.00       0.05       1.04       1.65        0.26     4.84   0.611
  TT14-702_shed              2.70       0.00       0.07       0.66       1.98        2.37    37.83   0.734
  TT14-706_shed              2.70       0.00       0.06       0.90       1.78        2.90    49.52   0.658
  TT14-708_shed              2.70       0.00       0.05       1.08       1.60        3.56    64.70   0.591
  TT14-720_shed              2.70       0.00       0.06       0.86       1.81        6.50   107.81   0.671
  TT14-736_shed              2.70       0.00       0.06       0.94       1.74        3.93    67.25   0.644
  TT14-740_shed              2.70       0.00       0.05       1.00       1.68        2.29    40.65   0.621
  TT14-746_shed              2.70       0.00       0.04       1.24       1.44        2.02    39.45   0.535
  

  ***********************
  LID Performance Summary
  ***********************

  --------------------------------------------------------------------------------------------------------------------
                                         Total      Evap     Infil   Surface    Drain    Initial     Final  Continuity
                                        Inflow      Loss      Loss   Outflow   Outflow   Storage   Storage       Error
  Subcatchment      LID Control             in        in        in        in        in        in        in           %
  --------------------------------------------------------------------------------------------------------------------
  TT14-702_shed     RainBarrel          193.15      0.00      0.00     89.20     56.99      0.00     47.16       -0.10
  
  ******************
  Node Depth Summary
  ******************
  
  ---------------------------------------------------------------------------------
                                 Average  Maximum  Maximum  Time of Max    Reported
                                   Depth    Depth      HGL   Occurrence   Max Depth
  Node                 Type         Feet     Feet     Feet  days hr:min        Feet
  ---------------------------------------------------------------------------------
  TT14-006             JUNCTION     0.29     8.90    36.41     6  18:05        8.77
  TT14-044             JUNCTION     0.52    12.77    55.15     6  18:03       12.65
  TT14-030             JUNCTION     0.30     9.29    45.81     6  18:04        9.18
  TT14-904             JUNCTION     0.15     3.38    46.96     6  18:00        3.38
  TT14-048             JUNCTION     0.29    10.23    54.75     6  18:03       10.12
  TT14-058             JUNCTION     0.40     7.70    57.27     6  18:02        7.66
  TT14-068             JUNCTION     0.30     6.35    59.79     6  18:02        6.33
  TT14-106             JUNCTION     0.17     6.05    59.88     6  18:03        6.00
  TT14-076             JUNCTION     0.42     9.51    67.08     6  18:01        9.48
  TT14-092             JUNCTION     0.35     7.73    75.89     6  18:02        7.68
  TT14-112             JUNCTION     0.15     5.37    73.45     6  18:02        5.34
  TT14-202             JUNCTION     0.12     3.68    76.11     6  18:02        3.66
  TT14-406             JUNCTION     0.05     1.65    79.48     6  18:00        1.65
  TT14-418             JUNCTION     0.06     1.90    88.62     6  18:00        1.90
  TT14-306             JUNCTION     4.52    13.31    82.51     6  17:16       13.23
  TT14-312             JUNCTION     0.06     1.35    91.21     6  18:00        1.35
  TT14-222             JUNCTION     0.23     8.38    91.08     6  18:02        8.34
  TT14-228             JUNCTION     0.21     6.99    94.99     6  18:02        6.96
  TT14-502             JUNCTION     1.57     5.13    97.74     6  18:01        5.13
  TT14-524             JUNCTION     0.29     7.62   132.24     6  18:01        7.60
  TT14-240             JUNCTION     0.09     2.85   122.49     6  18:01        2.85
  TT14-243             JUNCTION     0.09     2.76   131.31     6  18:00        2.76
  TT14-248             JUNCTION     0.08     2.49   144.01     6  18:00        2.49
  TT14-546             JUNCTION     0.22     5.46   164.94     6  18:01        5.45
  TT14-530             JUNCTION     0.25     6.39   141.11     6  18:01        6.38
  TT14-262             JUNCTION     0.53    14.97   175.97     6  18:00       14.97
  TT14-814             JUNCTION     0.08     3.46   176.34     6  18:02        3.30
  TT14-263             JUNCTION     0.23    11.12   180.30     6  17:49       11.00
  TT14-828             JUNCTION     0.07     2.37   201.80     6  18:00        2.36
  TT14-834             JUNCTION     0.05     1.74   219.66     6  18:00        1.74
  TT14-264             JUNCTION     0.22     6.18   186.34     6  18:02        6.09
  TT14-268             JUNCTION     0.20     5.65   197.19     6  18:01        5.64
  TT14-554             JUNCTION     0.23     6.15   177.85     6  18:00        6.14
  TT14-560             JUNCTION     0.21     5.33   190.93     6  18:00        5.32
  TT14-574             JUNCTION     0.20     5.12   203.74     6  18:00        5.11
  TT14-582             JUNCTION     0.21     5.36   209.88     6  18:00        5.35
  TT14-275             JUNCTION     0.21     5.83   206.22     6  18:00        5.82
  TT14-280             JUNCTION     0.20     5.74   214.22     6  18:00        5.74
  TT14-286             JUNCTION     0.20     5.57   219.86     6  18:00        5.56
  TT14-291             JUNCTION     0.19     5.42   227.82     6  18:00        5.42
  TT14-296             JUNCTION     0.20     5.71   234.19     6  18:00        5.70
  TT14-606             JUNCTION     0.08     3.04   235.94     6  18:00        3.03
  TT14-746             JUNCTION     0.05     1.45   320.49     6  18:00        1.45
  TT14-738             JUNCTION     0.05     1.74   305.45     6  18:00        1.74
  TT14-716             JUNCTION     0.07     2.57   271.38     6  18:00        2.57
  TT14-708             JUNCTION     0.08     2.79   263.29     6  18:00        2.78
  TT14-702             JUNCTION     0.13     3.32   252.22     6  18:00        3.32
  TT14-612             JUNCTION     0.14     3.48   246.01     6  18:00        3.48
  TT14-616             JUNCTION     0.13     3.41   249.33     6  18:00        3.40
  TT14-622             JUNCTION     0.12     3.22   254.56     6  18:00        3.22
  TT14-636             JUNCTION     0.06     2.08   262.92     6  18:00        2.08
  TT14-639             JUNCTION     0.13     3.82   267.50     6  18:00        3.82
  TT14-642             JUNCTION     0.11     2.98   271.40     6  18:00        2.98
  TT14-646             JUNCTION     0.10     2.69   277.13     6  18:00        2.69
  TT14-660             JUNCTION     0.05     1.41   307.64     6  18:00        1.41
  TT14-666             JUNCTION     0.05     1.37   312.37     6  18:00        1.37
  TT14-676             JUNCTION     0.05     1.32   317.32     6  18:00        1.32
  TT14-688             JUNCTION     0.05     1.26   322.26     6  18:00        1.26
  TT14-692             JUNCTION     0.03     0.71   326.71     6  18:00        0.71
  TT14-848             JUNCTION     0.06     1.49   245.68     6  18:00        1.49
  TT14-016             JUNCTION     0.33    10.32    39.28     6  18:05       10.19
  T14_1_1090           JUNCTION     0.44    12.16    49.10     6  18:04       11.98
  T14_1_1160           JUNCTION     0.48    10.19    47.92     6  18:04       10.07
  T14_1_1440_west_split JUNCTION     0.15     5.31    52.98     6  18:05        5.24
  T14_1_2390_east      JUNCTION     0.31     8.63    77.26     6  18:01        8.60
  T14_1_2410           JUNCTION     0.24     9.33    78.55     6  18:01        9.31
  T14_1_1520_west      JUNCTION     0.19     7.64    76.12     6  18:01        7.62
  T14_2_230            JUNCTION     0.12     3.88   116.78     6  18:02        3.87
  T14_2_2040           JUNCTION     0.05     1.86   275.24     6  18:01        1.85
  T14_2_2070           JUNCTION     0.14     3.89   277.63     6  18:01        3.88
  T14_2_2120           JUNCTION     0.05     1.83   278.21     6  18:00        1.82
  T14_2_2530           JUNCTION     0.02     0.82   311.12     6  18:00        0.82
  T14_3_640            JUNCTION     0.08     2.44   162.33     6  18:02        2.43
  T14_3_3_10           JUNCTION     0.23     9.43   176.24     6  18:02        9.38
  T14_3_1340           JUNCTION     0.10     3.73   241.24     6  18:00        3.73
  outfall              OUTFALL      0.27     8.90    32.90     6  18:05        8.77
  
  
  *******************
  Node Inflow Summary
  *******************
  
  -------------------------------------------------------------------------------------------------
                                  Maximum  Maximum                  Lateral       Total        Flow
                                  Lateral    Total  Time of Max      Inflow      Inflow     Balance
                                   Inflow   Inflow   Occurrence      Volume      Volume       Error
  Node                 Type           CFS      CFS  days hr:min    10^6 gal    10^6 gal     Percent
  -------------------------------------------------------------------------------------------------
  TT14-006             JUNCTION     82.89  4109.98     6  18:04        5.14         266      -0.001
  TT14-044             JUNCTION     79.31  3680.47     6  18:03        5.35         232       0.008
  TT14-030             JUNCTION     80.41  3965.90     6  18:03        4.77         254       0.004
  TT14-904             JUNCTION    260.44   260.44     6  18:00        17.2        17.2      -0.134
  TT14-048             JUNCTION     79.63  3613.00     6  18:02        5.83         227       0.013
  TT14-058             JUNCTION     62.27  1812.29     6  18:01        4.13         131      -0.019
  TT14-068             JUNCTION     40.54  1755.26     6  18:01        2.63         127       0.001
  TT14-106             JUNCTION     63.56  1746.17     6  18:02        3.65        90.3       0.012
  TT14-076             JUNCTION    191.18  1720.88     6  18:00        11.8         124      -0.007
  TT14-092             JUNCTION      1.88  1544.89     6  18:01       0.122         112       0.012
  TT14-112             JUNCTION     17.13  1691.43     6  18:02        1.19        86.6      -0.004
  TT14-202             JUNCTION     57.76  2706.95     6  18:02        3.79         164       0.000
  TT14-406             JUNCTION      6.10    95.15     6  18:00       0.457        6.17       0.009
  TT14-418             JUNCTION     89.24    89.24     6  18:00        5.72        5.71      -0.019
  TT14-306             JUNCTION    148.45   429.48     6  18:00        9.86        27.6       1.176
  TT14-312             JUNCTION    281.34   281.34     6  18:00        17.8        17.8      -0.021
  TT14-222             JUNCTION     65.84  2658.09     6  18:01        4.17         161       0.010
  TT14-228             JUNCTION     80.34  2604.47     6  18:00        3.99         156      -0.003
  TT14-502             JUNCTION     84.96  1129.39     6  18:01        4.21        69.2       0.643
  TT14-524             JUNCTION     72.44  1051.52     6  18:00        4.65          65      -0.017
  TT14-240             JUNCTION     29.89  1399.56     6  18:00        1.63        83.7       0.012
  TT14-243             JUNCTION     77.23  1371.02     6  18:00        4.46          82      -0.010
  TT14-248             JUNCTION     49.84  1295.89     6  18:00        2.82        77.6       0.009
  TT14-546             JUNCTION     26.81   908.33     6  18:00        1.74        55.1       0.010
  TT14-530             JUNCTION     77.75   982.67     6  18:00        5.23        60.4       0.004
  TT14-262             JUNCTION    167.13  1247.51     6  18:01        10.1        74.8       0.010
  TT14-814             JUNCTION     51.75   258.41     6  18:00        2.93        15.2       0.013
  TT14-263             JUNCTION     12.37   853.66     6  18:01        0.61        49.5       0.006
  TT14-828             JUNCTION     45.98   208.99     6  18:00        3.03        12.3       0.000
  TT14-834             JUNCTION    106.77   163.77     6  18:00        6.13        9.26      -0.010
  TT14-264             JUNCTION     63.88   846.82     6  18:00        3.88        48.9      -0.015
  TT14-268             JUNCTION     10.97   785.59     6  18:00       0.686          45       0.026
  TT14-554             JUNCTION    136.24   883.83     6  18:00        8.38        53.4      -0.017
  TT14-560             JUNCTION    124.69   750.35     6  18:00        7.86          45       0.003
  TT14-574             JUNCTION    116.30   628.32     6  18:00         6.7        37.2       0.000
  TT14-582             JUNCTION    115.55   515.83     6  18:00        6.92        30.5       0.013
  TT14-275             JUNCTION     39.47   775.45     6  18:00        2.24        44.3      -0.017
  TT14-280             JUNCTION     53.55   737.29     6  18:00        3.36        42.1      -0.006
  TT14-286             JUNCTION     17.40   685.43     6  18:00        1.12        38.7       0.013
  TT14-291             JUNCTION     80.64   669.26     6  18:00         3.9        37.6      -0.005
  TT14-296             JUNCTION    200.82   590.06     6  18:00        11.7        33.7      -0.011
  TT14-606             JUNCTION      7.04   390.15     6  18:00       0.441          22       0.006
  TT14-746             JUNCTION     39.45    39.45     6  18:00        2.02        2.02      -0.031
  TT14-738             JUNCTION    107.89   147.09     6  18:00        6.21        8.22      -0.021
  TT14-716             JUNCTION    107.81   252.35     6  18:00         6.5        14.7      -0.002
  TT14-708             JUNCTION    114.22   365.54     6  18:00        6.46        21.2      -0.002
  TT14-702             JUNCTION     37.83   402.17     6  18:00        2.36        23.5      -0.012
  TT14-612             JUNCTION     55.77   383.86     6  18:00        3.15        21.5      -0.016
  TT14-616             JUNCTION     11.88   328.45     6  18:00       0.753        18.4       0.009
  TT14-622             JUNCTION    101.95   316.76     6  18:00        5.92        17.6      -0.010
  TT14-636             JUNCTION      5.72   215.29     6  18:00       0.335        11.7       0.028
  TT14-639             JUNCTION     18.08   209.81     6  18:00       0.988        11.4      -0.022
  TT14-642             JUNCTION     31.93   192.00     6  18:00        1.58        10.4       0.001
  TT14-646             JUNCTION    100.72   160.37     6  18:00        5.55        8.83      -0.007
  TT14-660             JUNCTION     28.94    59.69     6  18:00        1.55        3.28      -0.014
  TT14-666             JUNCTION      9.03    30.76     6  18:00       0.506        1.73       0.017
  TT14-676             JUNCTION      3.32    21.74     6  18:00        0.18        1.22       0.116
  TT14-688             JUNCTION      8.48    18.43     6  18:00       0.495        1.04      -0.103
  TT14-692             JUNCTION      9.96     9.96     6  18:00       0.548       0.548      -0.040
  TT14-848             JUNCTION     57.30    57.30     6  18:00        3.13        3.13      -0.006
  TT14-016             JUNCTION    105.95  4047.92     6  18:04           6         260       0.014
  T14_1_1090           JUNCTION      0.00  3680.67     6  18:04           0         232       0.019
  T14_1_1160           JUNCTION      0.00  3681.60     6  18:04           0         232      -0.018
  T14_1_1440_west_split JUNCTION      0.00  1743.86     6  18:04           0        90.3       0.008
  T14_1_2390_east      JUNCTION      0.00  1543.24     6  18:01           0         112      -0.001
  T14_1_2410           JUNCTION      0.00  3125.48     6  18:00           0         192       0.013
  T14_1_1520_west      JUNCTION      0.00  1675.64     6  18:01           0        85.4      -0.001
  T14_2_230            JUNCTION      0.00  1050.89     6  18:01           0          65       0.020
  T14_2_2040           JUNCTION      0.00   145.77     6  18:01           0        8.23       0.024
  T14_2_2070           JUNCTION      0.00   145.89     6  18:00           0        8.22      -0.022
  T14_2_2120           JUNCTION      0.00   146.42     6  18:00           0        8.23       0.016
  T14_2_2530           JUNCTION      0.00    39.36     6  18:00           0        2.02       0.028
  T14_3_640            JUNCTION      0.00  1247.49     6  18:02           0        74.8      -0.001
  T14_3_3_10           JUNCTION      0.00   311.36     6  18:06           0        15.2      -0.009
  T14_3_1340           JUNCTION      0.00   383.65     6  18:00           0        21.5       0.011
  outfall              OUTFALL       0.00  4109.25     6  18:05           0         266       0.000
  
  
  **********************
  Node Surcharge Summary
  **********************
  
  Surcharging occurs when water rises above the top of the highest conduit.
  ---------------------------------------------------------------------
                                               Max. Height   Min. Depth
                                   Hours       Above Crown    Below Rim
  Node                 Type      Surcharged           Feet         Feet
  ---------------------------------------------------------------------
  TT14-262             JUNCTION        0.43          2.407       36.926
  TT14-263             JUNCTION        0.29          2.118       70.196
  T14_3_3_10           JUNCTION        0.42          2.426       48.557
  
  
  *********************
  Node Flooding Summary
  *********************
  
  No nodes were flooded.
  
  
  ***********************
  Outfall Loading Summary
  ***********************
  
  -----------------------------------------------------------
                         Flow       Avg       Max       Total
                         Freq      Flow      Flow      Volume
  Outfall Node           Pcnt       CFS       CFS    10^6 gal
  -----------------------------------------------------------
  outfall               44.56    178.26   4109.25     265.517
  -----------------------------------------------------------
  System                44.56    178.26   4109.25     265.517
  
  
  ********************
  Link Flow Summary
  ********************
  
  -----------------------------------------------------------------------------
                                 Maximum  Time of Max   Maximum    Max/    Max/
                                  |Flow|   Occurrence   |Veloc|    Full    Full
  Link                 Type          CFS  days hr:min    ft/sec    Flow   Depth
  -----------------------------------------------------------------------------
  C1                   CONDUIT   4045.93     6  18:05     17.55    0.56    0.46
  C2                   CONDUIT   3961.47     6  18:04     16.84    0.49    0.47
  C3                   CONDUIT    260.09     6  18:00     13.55    0.47    0.74
  C4                   CONDUIT   3681.61     6  18:05     15.61    0.95    0.56
  C5                   CONDUIT   3680.67     6  18:04     21.22    0.56    0.59
  C6                   CONDUIT   3681.60     6  18:04     20.56    0.70    0.60
  C7                   CONDUIT   3613.92     6  18:04     14.98    0.41    0.64
  C8                   CONDUIT   1742.06     6  18:05     13.49    0.25    0.52
  C9                   CONDUIT   1743.86     6  18:04     14.63    0.59    0.47
  C10                  CONDUIT   1689.43     6  18:02     17.40    0.24    0.36
  C11                  CONDUIT   1717.95     6  18:02     17.28    0.55    0.50
  C12                  CONDUIT   1543.13     6  18:02     15.53    0.59    0.62
  C13                  CONDUIT   1810.92     6  18:02     16.68    0.40    0.51
  C14                  CONDUIT   1754.78     6  18:02     19.51    0.28    0.40
  C15                  CONDUIT   1543.19     6  18:01     13.48    0.67    0.58
  C16                  CONDUIT    428.93     6  18:00     21.10    0.33    0.70
  C17                  CONDUIT   1448.83     6  18:01     21.00    1.48    1.00
  C18                  CONDUIT   1675.64     6  18:01     30.43    1.81    1.00
  C19                  CONDUIT   1676.14     6  18:02     16.10    0.35    0.46
  C20                  CONDUIT   2706.58     6  18:02     25.04    0.15    0.43
  C21                  CONDUIT    281.03     6  18:00     10.36    0.07    0.59
  C22                  CONDUIT     94.97     6  18:00      6.06    0.19    0.64
  C23                  CONDUIT     89.06     6  18:00     10.04    0.22    0.30
  C24                  CONDUIT   2655.60     6  18:02     22.03    0.31    0.40
  C25                  CONDUIT   2598.20     6  18:02     19.90    0.37    0.51
  C26                  CONDUIT   1129.15     6  18:01     14.56    0.06    0.36
  C27                  CONDUIT   1049.72     6  18:02     16.64    0.30    0.47
  C28                  CONDUIT   1050.89     6  18:01     22.50    0.60    0.57
  C29                  CONDUIT    981.39     6  18:01     17.53    0.79    0.74
  C30                  CONDUIT    907.42     6  18:01     20.43    0.68    0.66
  C31                  CONDUIT    882.29     6  18:00     21.37    0.81    0.68
  C32                  CONDUIT    748.77     6  18:00     18.39    0.72    0.68
  C33                  CONDUIT    626.72     6  18:00     17.14    0.68    0.61
  C34                  CONDUIT    512.93     6  18:00     13.97    0.71    0.62
  C35                  CONDUIT    401.08     6  18:00     13.76    0.32    0.51
  C36                  CONDUIT    364.64     6  18:00     15.93    0.25    0.38
  C37                  CONDUIT    251.55     6  18:00     12.52    0.23    0.33
  C38                  CONDUIT    145.65     6  18:02      8.84    0.16    0.30
  C39                  CONDUIT    145.77     6  18:01     10.88    0.37    0.48
  C40                  CONDUIT    145.89     6  18:00      8.51    0.21    0.48
  C41                  CONDUIT    146.42     6  18:00     13.68    0.15    0.24
  C42                  CONDUIT     39.28     6  18:00      6.13    0.07    0.21
  C43                  CONDUIT     39.36     6  18:00     11.71    0.14    0.23
  C44                  CONDUIT   1398.32     6  18:01     12.96    0.11    0.38
  C45                  CONDUIT   1370.49     6  18:00     22.74    0.11    0.22
  C46                  CONDUIT   1295.36     6  18:00     22.95    0.09    0.20
  C47                  CONDUIT   1247.47     6  18:02     23.56    0.09    0.19
  C48                  CONDUIT   1247.49     6  18:02     17.56    1.76    0.60
  C49                  CONDUIT    312.77     6  18:06      8.13    1.28    1.00
  C50                  CONDUIT    311.36     6  18:06      7.87    0.31    0.75
  C51                  CONDUIT    207.10     6  18:00     11.19    0.26    0.45
  C52                  CONDUIT    163.14     6  18:00     13.24    0.19    0.34
  C53                  CONDUIT     57.04     6  18:00     10.39    0.19    0.32
  C54                  CONDUIT    853.68     6  18:02     13.93    0.72    1.00
  C55                  CONDUIT    842.46     6  18:02     19.49    0.84    0.86
  C56                  CONDUIT    785.19     6  18:01     18.88    0.78    0.70
  C57                  CONDUIT    775.12     6  18:01     19.01    0.80    0.68
  C58                  CONDUIT    736.86     6  18:00     18.40    0.83    0.70
  C59                  CONDUIT    684.98     6  18:00     17.54    0.80    0.69
  C60                  CONDUIT    668.38     6  18:00     17.68    0.77    0.67
  C61                  CONDUIT    588.95     6  18:00     15.36    0.80    0.67
  C62                  CONDUIT    389.98     6  18:01      9.97    0.21    0.44
  C63                  CONDUIT    383.34     6  18:00     14.17    0.22    0.29
  C64                  CONDUIT    383.65     6  18:00     18.26    0.44    0.48
  C65                  CONDUIT    328.29     6  18:00     16.58    0.42    0.46
  C66                  CONDUIT    316.62     6  18:00     16.83    0.38    0.44
  C67                  CONDUIT    215.11     6  18:00     14.78    0.12    0.20
  C68                  CONDUIT    209.66     6  18:00     13.61    0.34    0.42
  C69                  CONDUIT    191.83     6  18:00     11.61    0.49    0.57
  C70                  CONDUIT    160.11     6  18:00     12.18    0.41    0.47
  C71                  CONDUIT     59.65     6  18:00      9.25    0.27    0.51
  C72                  CONDUIT     30.74     6  18:00      8.62    0.33    0.40
  C73                  CONDUIT     21.73     6  18:00      6.36    0.30    0.39
  C74                  CONDUIT     18.42     6  18:00      5.71    0.28    0.37
  C75                  CONDUIT      9.96     6  18:00      4.94    0.12    0.33
  outflow              CONDUIT   4109.25     6  18:05     19.24    0.46    0.42
  
  
  ***************************
  Flow Classification Summary
  ***************************
  
  -------------------------------------------------------------------------------------
                      Adjusted    ---------- Fraction of Time in Flow Class ---------- 
                       /Actual         Up    Down  Sub   Sup   Up    Down  Norm  Inlet 
  Conduit               Length    Dry  Dry   Dry   Crit  Crit  Crit  Crit  Ltd   Ctrl  
  -------------------------------------------------------------------------------------
  C1                      1.00   0.55  0.00  0.00  0.40  0.05  0.00  0.00  0.29  0.00
  C2                      1.00   0.55  0.00  0.00  0.44  0.01  0.00  0.00  0.38  0.00
  C3                      1.00   0.55  0.16  0.00  0.21  0.07  0.00  0.00  0.37  0.00
  C4                      1.00   0.55  0.00  0.00  0.45  0.00  0.00  0.00  0.01  0.00
  C5                      2.75   0.55  0.00  0.00  0.14  0.31  0.00  0.00  0.05  0.00
  C6                      1.00   0.55  0.00  0.00  0.29  0.15  0.00  0.00  0.05  0.00
  C7                      1.11   0.55  0.00  0.00  0.45  0.00  0.00  0.00  0.43  0.00
  C8                      1.37   0.55  0.00  0.00  0.44  0.00  0.00  0.00  0.43  0.00
  C9                      1.00   0.55  0.00  0.00  0.38  0.07  0.00  0.00  0.10  0.00
  C10                     1.00   0.55  0.00  0.00  0.34  0.11  0.00  0.00  0.40  0.00
  C11                     1.00   0.55  0.00  0.00  0.28  0.17  0.00  0.00  0.00  0.00
  C12                     1.00   0.55  0.00  0.00  0.36  0.09  0.00  0.00  0.44  0.00
  C13                     1.00   0.55  0.00  0.00  0.18  0.27  0.00  0.00  0.03  0.00
  C14                     1.00   0.55  0.00  0.00  0.31  0.14  0.00  0.00  0.44  0.00
  C15                     1.43   0.55  0.00  0.00  0.45  0.00  0.00  0.00  0.35  0.00
  C16                     1.71   0.55  0.08  0.00  0.16  0.20  0.00  0.00  0.37  0.00
  C17                     4.47   0.55  0.00  0.00  0.40  0.05  0.00  0.00  0.42  0.00
  C18                     6.10   0.55  0.00  0.00  0.12  0.33  0.00  0.00  0.01  0.00
  C19                     6.25   0.55  0.00  0.00  0.32  0.13  0.00  0.00  0.15  0.00
  C20                    10.52   0.55  0.00  0.00  0.02  0.42  0.00  0.00  0.43  0.00
  C21                    11.86   0.55  0.18  0.00  0.27  0.00  0.00  0.00  0.44  0.00
  C22                     1.00   0.55  0.02  0.00  0.41  0.02  0.00  0.00  0.43  0.00
  C23                     1.00   0.58  0.04  0.00  0.24  0.14  0.00  0.00  0.31  0.00
  C24                     1.00   0.55  0.00  0.00  0.16  0.29  0.00  0.00  0.00  0.00
  C25                     1.00   0.55  0.00  0.00  0.28  0.17  0.00  0.00  0.40  0.00
  C26                    14.87   0.55  0.01  0.00  0.32  0.12  0.00  0.00  0.42  0.00
  C27                     1.00   0.55  0.00  0.00  0.44  0.01  0.00  0.00  0.43  0.00
  C28                     1.00   0.55  0.00  0.00  0.11  0.33  0.00  0.00  0.06  0.00
  C29                     1.00   0.56  0.00  0.00  0.23  0.22  0.00  0.00  0.28  0.00
  C30                     1.00   0.56  0.00  0.00  0.20  0.24  0.00  0.00  0.43  0.00
  C31                     1.00   0.56  0.00  0.00  0.18  0.26  0.00  0.00  0.09  0.00
  C32                     1.00   0.56  0.00  0.00  0.20  0.24  0.00  0.00  0.44  0.00
  C33                     1.00   0.56  0.00  0.00  0.23  0.21  0.00  0.00  0.24  0.00
  C34                     1.00   0.56  0.00  0.00  0.30  0.14  0.00  0.00  0.03  0.00
  C35                     1.00   0.55  0.00  0.00  0.29  0.16  0.00  0.00  0.44  0.00
  C36                     1.00   0.55  0.00  0.00  0.38  0.06  0.00  0.00  0.41  0.00
  C37                     1.00   0.55  0.00  0.00  0.30  0.14  0.00  0.00  0.39  0.00
  C38                     1.00   0.55  0.00  0.00  0.40  0.04  0.00  0.00  0.43  0.00
  C39                    13.45   0.56  0.00  0.00  0.19  0.25  0.00  0.00  0.03  0.00
  C40                     2.16   0.55  0.00  0.00  0.44  0.01  0.00  0.00  0.41  0.00
  C41                     1.00   0.55  0.05  0.00  0.23  0.17  0.00  0.00  0.40  0.00
  C42                     1.00   0.60  0.14  0.00  0.25  0.00  0.00  0.00  0.43  0.00
  C43                     1.00   0.74  0.06  0.00  0.02  0.18  0.00  0.00  0.26  0.00
  C44                     1.00   0.55  0.00  0.00  0.39  0.06  0.00  0.00  0.43  0.00
  C45                     1.57   0.55  0.00  0.00  0.18  0.27  0.00  0.00  0.38  0.00
  C46                     1.41   0.55  0.00  0.00  0.15  0.29  0.00  0.00  0.44  0.00
  C47                     1.00   0.55  0.00  0.00  0.14  0.31  0.00  0.00  0.41  0.00
  C48                     1.00   0.55  0.00  0.00  0.29  0.16  0.00  0.00  0.00  0.00
  C49                     2.47   0.55  0.00  0.00  0.01  0.00  0.00  0.44  0.00  0.00
  C50                     1.00   0.55  0.00  0.00  0.44  0.00  0.00  0.00  0.43  0.00
  C51                     1.00   0.55  0.00  0.00  0.33  0.12  0.00  0.00  0.39  0.00
  C52                     1.00   0.55  0.13  0.00  0.19  0.13  0.00  0.00  0.41  0.00
  C53                     1.00   0.68  0.11  0.00  0.02  0.19  0.00  0.00  0.26  0.00
  C54                     1.00   0.55  0.04  0.00  0.41  0.00  0.00  0.00  0.43  0.00
  C55                     1.00   0.59  0.00  0.00  0.18  0.22  0.00  0.00  0.18  0.00
  C56                     1.00   0.59  0.00  0.00  0.19  0.21  0.00  0.00  0.41  0.00
  C57                     1.00   0.59  0.00  0.00  0.19  0.21  0.00  0.00  0.17  0.00
  C58                     1.00   0.60  0.00  0.00  0.20  0.21  0.00  0.00  0.25  0.00
  C59                     1.00   0.60  0.00  0.00  0.21  0.20  0.00  0.00  0.34  0.00
  C60                     1.00   0.60  0.00  0.00  0.21  0.20  0.00  0.00  0.38  0.00
  C61                     1.00   0.55  0.00  0.00  0.28  0.17  0.00  0.00  0.02  0.00
  C62                     1.00   0.55  0.05  0.00  0.39  0.00  0.00  0.00  0.44  0.00
  C63                     1.00   0.61  0.02  0.00  0.23  0.15  0.00  0.00  0.29  0.00
  C64                     1.81   0.59  0.04  0.00  0.15  0.21  0.00  0.00  0.16  0.00
  C65                     1.99   0.63  0.05  0.00  0.16  0.17  0.00  0.00  0.25  0.00
  C66                     1.47   0.62  0.01  0.00  0.19  0.19  0.00  0.00  0.29  0.00
  C67                     1.00   0.63  0.00  0.00  0.00  0.00  0.00  0.37  0.00  0.00
  C68                     1.98   0.63  0.16  0.00  0.02  0.19  0.00  0.00  0.25  0.00
  C69                     1.00   0.77  0.00  0.00  0.09  0.15  0.00  0.00  0.37  0.00
  C70                     1.00   0.74  0.00  0.00  0.11  0.15  0.00  0.00  0.44  0.00
  C71                     1.00   0.74  0.07  0.00  0.10  0.09  0.00  0.00  0.44  0.00
  C72                     1.00   0.74  0.00  0.00  0.11  0.14  0.00  0.00  0.36  0.00
  C73                     1.00   0.55  0.03  0.00  0.35  0.06  0.00  0.00  0.44  0.00
  C74                     1.00   0.59  0.23  0.00  0.16  0.03  0.00  0.00  0.40  0.00
  C75                     1.27   0.78  0.01  0.00  0.20  0.01  0.00  0.00  0.44  0.00
  outflow                 1.00   0.55  0.00  0.00  0.00  0.44  0.00  0.00  0.04  0.00
  
  
  *************************
  Conduit Surcharge Summary
  *************************
  
  ----------------------------------------------------------------------------
                                                           Hours        Hours 
                         --------- Hours Full --------   Above Full   Capacity
  Conduit                Both Ends  Upstream  Dnstream   Normal Flow   Limited
  ----------------------------------------------------------------------------
  C3                          0.01      0.01      0.79      0.01         0.01
  C16                         0.01      0.01      0.52      0.01         0.01
  C17                         0.94      0.94      1.05      0.82         0.81
  C18                         0.79      0.94      0.79      0.84         0.79
  C21                         0.01      0.01     81.21      0.01         0.01
  C22                         0.01      0.01      1.05      0.01         0.01
  C48                         0.01      0.52      0.01      0.90         0.01
  C49                         0.42      0.42      0.43      0.11         0.16
  C50                         0.01      0.01      0.42      0.01         0.01
  C54                         0.29      0.29      0.90      0.01         0.01
  C55                         0.01      0.01      0.32      0.01         0.01
  
  
  ************
  Node Results
  ************
  
  <<< Node outfall >>>
  ----------------------------------------------------------------
                           Inflow  Flooding     Depth      Head
  Date        Time            CFS       CFS      feet      feet
  ----------------------------------------------------------------
   08/29/2012 00:15:00      0.000     0.000     0.000    24.000
   08/29/2012 00:30:00      0.000     0.000     0.000    24.000
   08/29/2012 00:45:00      0.000     0.000     0.000    24.000
   08/29/2012 01:00:00      0.000     0.000     0.000    24.000
   08/29/2012 01:15:00      0.000     0.000     0.000    24.000
   08/29/2012 01:30:00      0.000     0.000     0.000    24.000
   08/29/2012 01:45:00      0.000     0.000     0.000    24.000
   08/29/2012 02:00:00      0.000     0.000     0.000    24.000
   08/29/2012 02:15:00      0.000     0.000     0.000    24.000
   08/29/2012 02:30:00      0.000     0.000     0.000    24.000
   08/29/2012 02:45:00      0.000     0.000     0.000    24.000
   08/29/2012 03:00:00      0.000     0.000     0.000    24.000
   08/29/2012 03:15:00      0.000     0.000     0.000    24.000
   08/29/2012 03:30:00      0.000     0.000     0.000    24.000
   08/29/2012 03:45:00      0.000     0.000     0.000    24.000
   08/29/2012 04:00:00      0.000     0.000     0.000    24.000
   08/29/2012 04:15:00      0.000     0.000     0.000    24.000
   08/29/2012 04:30:00      0.000     0.000     0.000    24.000
   08/29/2012 04:45:00      0.000     0.000     0.000    24.000
   08/29/2012 05:00:00      0.000     0.000     0.000    24.000
   08/29/2012 05:15:00      0.000     0.000     0.000    24.000
   08/29/2012 05:30:00      0.000     0.000     0.000    24.000
   08/29/2012 05:45:00      0.000     0.000     0.000    24.000
   08/29/2012 06:00:00      0.000     0.000     0.000    24.000
   08/29/2012 06:15:00      0.000     0.000     0.000    24.000
   08/29/2012 06:30:00      0.000     0.000     0.000    24.000
   08/29/2012 06:45:00      0.000     0.000     0.000    24.000
   08/29/2012 07:00:00      0.000     0.000     0.000    24.000
   08/29/2012 07:15:00      0.000     0.000     0.000    24.000
   08/29/2012 07:30:00      0.000     0.000     0.000    24.000
   08/29/2012 07:45:00      0.000     0.000     0.000    24.000
   08/29/2012 08:00:00      0.000     0.000     0.000    24.000
   08/29/2012 08:15:00      0.000     0.000     0.000    24.000
   08/29/2012 08:30:00      0.000     0.000     0.000    24.000
   08/29/2012 08:45:00      0.000     0.000     0.000    24.000
   08/29/2012 09:00:00      0.000     0.000     0.000    24.000
   08/29/2012 09:15:00      0.000     0.000     0.000    24.000
   08/29/2012 09:30:00      0.000     0.000     0.000    24.000
   08/29/2012 09:45:00      0.000     0.000     0.000    24.000
   08/29/2012 10:00:00      0.000     0.000     0.000    24.000
   08/29/2012 10:15:00      0.000     0.000     0.000    24.000
   08/29/2012 10:30:00      0.000     0.000     0.000    24.000
   08/29/2012 10:45:00      0.000     0.000     0.000    24.000
   08/29/2012 11:00:00      0.000     0.000     0.000    24.000
   08/29/2012 11:15:00      0.000     0.000     0.000    24.000
   08/29/2012 11:30:00      0.000     0.000     0.000    24.000
   08/29/2012 11:45:00      0.000     0.000     0.000    24.000
   08/29/2012 12:00:00      0.000     0.000     0.000    24.000
   08/29/2012 12:15:00      0.000     0.000     0.000    24.000
   08/29/2012 12:30:00      0.000     0.000     0.000    24.000
   08/29/2012 12:45:00      0.000     0.000     0.000    24.000
   08/29/2012 13:00:00      0.000     0.000     0.000    24.000
   08/29/2012 13:15:00      0.000     0.000     0.000    24.000
   08/29/2012 13:30:00      0.000     0.000     0.000    24.000
   08/29/2012 13:45:00      0.000     0.000     0.000    24.000
   08/29/2012 14:00:00      0.000     0.000     0.000    24.000
   08/29/2012 14:15:00      0.000     0.000     0.000    24.000
   08/29/2012 14:30:00      0.000     0.000     0.000    24.000
   08/29/2012 14:45:00      0.000     0.000     0.000    24.000
   08/29/2012 15:00:00      0.000     0.000     0.000    24.000
   08/29/2012 15:15:00      0.000     0.000     0.000    24.000
   08/29/2012 15:30:00      0.000     0.000     0.000    24.000
   08/29/2012 15:45:00      0.000     0.000     0.000    24.000
   08/29/2012 16:00:00      0.000     0.000     0.000    24.000
   08/29/2012 16:15:00      0.000     0.000     0.000    24.000
   08/29/2012 16:30:00      0.000     0.000     0.000    24.000
   08/29/2012 16:45:00      0.000     0.000     0.000    24.000
   08/29/2012 17:00:00      0.000     0.000     0.000    24.000
   08/29/2012 17:15:00      0.000     0.000     0.000    24.000
   08/29/2012 17:30:00      0.000     0.000     0.000    24.000
   08/29/2012 17:45:00      0.000     0.000     0.000    24.000
   08/29/2012 18:00:00      0.000     0.000     0.000    24.000
   08/29/2012 18:15:00      0.000     0.000     0.000    24.000
   08/29/2012 18:30:00      0.000     0.000     0.000    24.000
   08/29/2012 18:45:00      0.000     0.000     0.000    24.000
   08/29/2012 19:00:00      0.000     0.000     0.000    24.000
   08/29/2012 19:15:00      0.000     0.000     0.000    24.000
   08/29/2012 19:30:00      0.000     0.000     0.000    24.000
   08/29/2012 19:45:00      0.000     0.000     0.000    24.000
   08/29/2012 20:00:00      0.000     0.000     0.000    24.000
   08/29/2012 20:15:00      0.000     0.000     0.000    24.000
   08/29/2012 20:30:00      0.000     0.000     0.000    24.000
   08/29/2012 20:45:00      0.000     0.000     0.000    24.000
   08/29/2012 21:00:00      0.000     0.000     0.000    24.000
   08/29/2012 21:15:00      0.000     0.000     0.000    24.000
   08/29/2012 21:30:00      0.000     0.000     0.000    24.000
   08/29/2012 21:45:00      0.000     0.000     0.000    24.000
   08/29/2012 22:00:00      0.000     0.000     0.000    24.000
   08/29/2012 22:15:00      0.000     0.000     0.000    24.000
   08/29/2012 22:30:00      0.000     0.000     0.000    24.000
   08/29/2012 22:45:00      0.000     0.000     0.000    24.000
   08/29/2012 23:00:00      0.000     0.000     0.000    24.000
   08/29/2012 23:15:00      0.000     0.000     0.000    24.000
   08/29/2012 23:30:00      0.000     0.000     0.000    24.000
   08/29/2012 23:45:00      0.000     0.000     0.000    24.000
   08/30/2012 00:00:00      0.000     0.000     0.000    24.000
   08/30/2012 00:15:00      0.000     0.000     0.000    24.000
   08/30/2012 00:30:00      0.000     0.000     0.000    24.000
   08/30/2012 00:45:00      0.000     0.000     0.000    24.000
   08/30/2012 01:00:00      0.000     0.000     0.000    24.000
   08/30/2012 01:15:00      0.000     0.000     0.000    24.000
   08/30/2012 01:30:00      0.000     0.000     0.000    24.000
   08/30/2012 01:45:00      0.000     0.000     0.000    24.000
   08/30/2012 02:00:00      0.000     0.000     0.000    24.000
   08/30/2012 02:15:00      0.000     0.000     0.000    24.000
   08/30/2012 02:30:00      0.000     0.000     0.000    24.000
   08/30/2012 02:45:00      0.000     0.000     0.000    24.000
   08/30/2012 03:00:00      0.000     0.000     0.000    24.000
   08/30/2012 03:15:00      0.000     0.000     0.000    24.000
   08/30/2012 03:30:00      0.000     0.000     0.000    24.000
   08/30/2012 03:45:00      0.000     0.000     0.000    24.000
   08/30/2012 04:00:00      0.000     0.000     0.000    24.000
   08/30/2012 04:15:00      0.000     0.000     0.000    24.000
   08/30/2012 04:30:00      0.000     0.000     0.000    24.000
   08/30/2012 04:45:00      0.000     0.000     0.000    24.000
   08/30/2012 05:00:00      0.000     0.000     0.000    24.000
   08/30/2012 05:15:00      0.000     0.000     0.000    24.000
   08/30/2012 05:30:00      0.000     0.000     0.000    24.000
   08/30/2012 05:45:00      0.000     0.000     0.000    24.000
   08/30/2012 06:00:00      0.000     0.000     0.000    24.000
   08/30/2012 06:15:00      0.000     0.000     0.000    24.000
   08/30/2012 06:30:00      0.000     0.000     0.000    24.000
   08/30/2012 06:45:00      0.000     0.000     0.000    24.000
   08/30/2012 07:00:00      0.000     0.000     0.000    24.000
   08/30/2012 07:15:00      0.000     0.000     0.000    24.000
   08/30/2012 07:30:00      0.000     0.000     0.000    24.000
   08/30/2012 07:45:00      0.000     0.000     0.000    24.000
   08/30/2012 08:00:00      0.000     0.000     0.000    24.000
   08/30/2012 08:15:00      0.000     0.000     0.000    24.000
   08/30/2012 08:30:00      0.000     0.000     0.000    24.000
   08/30/2012 08:45:00      0.000     0.000     0.000    24.000
   08/30/2012 09:00:00      0.000     0.000     0.000    24.000
   08/30/2012 09:15:00      0.000     0.000     0.000    24.000
   08/30/2012 09:30:00      0.000     0.000     0.000    24.000
   08/30/2012 09:45:00      0.000     0.000     0.000    24.000
   08/30/2012 10:00:00      0.000     0.000     0.000    24.000
   08/30/2012 10:15:00      0.000     0.000     0.000    24.000
   08/30/2012 10:30:00      0.000     0.000     0.000    24.000
   08/30/2012 10:45:00      0.000     0.000     0.000    24.000
   08/30/2012 11:00:00      0.000     0.000     0.000    24.000
   08/30/2012 11:15:00      0.000     0.000     0.000    24.000
   08/30/2012 11:30:00      0.000     0.000     0.000    24.000
   08/30/2012 11:45:00      0.000     0.000     0.000    24.000
   08/30/2012 12:00:00      0.000     0.000     0.000    24.000
   08/30/2012 12:15:00      0.000     0.000     0.000    24.000
   08/30/2012 12:30:00      0.000     0.000     0.000    24.000
   08/30/2012 12:45:00      0.000     0.000     0.000    24.000
   08/30/2012 13:00:00      0.000     0.000     0.000    24.000
   08/30/2012 13:15:00      0.000     0.000     0.000    24.000
   08/30/2012 13:30:00      0.000     0.000     0.000    24.000
   08/30/2012 13:45:00      0.000     0.000     0.000    24.000
   08/30/2012 14:00:00      0.000     0.000     0.000    24.000
   08/30/2012 14:15:00      0.000     0.000     0.000    24.000
   08/30/2012 14:30:00      0.000     0.000     0.000    24.000
   08/30/2012 14:45:00      0.000     0.000     0.000    24.000
   08/30/2012 15:00:00      0.000     0.000     0.000    24.000
   08/30/2012 15:15:00      0.000     0.000     0.000    24.000
   08/30/2012 15:30:00      0.000     0.000     0.000    24.000
   08/30/2012 15:45:00      0.000     0.000     0.000    24.000
   08/30/2012 16:00:00      0.000     0.000     0.000    24.000
   08/30/2012 16:15:00      0.000     0.000     0.000    24.000
   08/30/2012 16:30:00      0.000     0.000     0.000    24.000
   08/30/2012 16:45:00      0.000     0.000     0.000    24.000
   08/30/2012 17:00:00      0.000     0.000     0.000    24.000
   08/30/2012 17:15:00      0.000     0.000     0.000    24.000
   08/30/2012 17:30:00      0.000     0.000     0.000    24.000
   08/30/2012 17:45:00      0.000     0.000     0.000    24.000
   08/30/2012 18:00:00      0.000     0.000     0.000    24.000
   08/30/2012 18:15:00      0.000     0.000     0.000    24.000
   08/30/2012 18:30:00      0.000     0.000     0.000    24.000
   08/30/2012 18:45:00      0.000     0.000     0.000    24.000
   08/30/2012 19:00:00      0.000     0.000     0.000    24.000
   08/30/2012 19:15:00      0.000     0.000     0.000    24.000
   08/30/2012 19:30:00      0.000     0.000     0.000    24.000
   08/30/2012 19:45:00      0.000     0.000     0.000    24.000
   08/30/2012 20:00:00      0.000     0.000     0.000    24.000
   08/30/2012 20:15:00      0.000     0.000     0.000    24.000
   08/30/2012 20:30:00      0.000     0.000     0.000    24.000
   08/30/2012 20:45:00      0.000     0.000     0.000    24.000
   08/30/2012 21:00:00      0.000     0.000     0.000    24.000
   08/30/2012 21:15:00      0.000     0.000     0.000    24.000
   08/30/2012 21:30:00      0.000     0.000     0.000    24.000
   08/30/2012 21:45:00      0.000     0.000     0.000    24.000
   08/30/2012 22:00:00      0.000     0.000     0.000    24.000
   08/30/2012 22:15:00      0.000     0.000     0.000    24.000
   08/30/2012 22:30:00      0.000     0.000     0.000    24.000
   08/30/2012 22:45:00      0.000     0.000     0.000    24.000
   08/30/2012 23:00:00      0.000     0.000     0.000    24.000
   08/30/2012 23:15:00      0.000     0.000     0.000    24.000
   08/30/2012 23:30:00      0.000     0.000     0.000    24.000
   08/30/2012 23:45:00      0.000     0.000     0.000    24.000
   08/31/2012 00:00:00      0.000     0.000     0.000    24.000
   08/31/2012 00:15:00      0.000     0.000     0.000    24.000
   08/31/2012 00:30:00      0.000     0.000     0.000    24.000
   08/31/2012 00:45:00      0.000     0.000     0.000    24.000
   08/31/2012 01:00:00      0.000     0.000     0.000    24.000
   08/31/2012 01:15:00      0.000     0.000     0.000    24.000
   08/31/2012 01:30:00      0.000     0.000     0.000    24.000
   08/31/2012 01:45:00      0.000     0.000     0.000    24.000
   08/31/2012 02:00:00      0.000     0.000     0.000    24.000
   08/31/2012 02:15:00      0.000     0.000     0.000    24.000
   08/31/2012 02:30:00      0.000     0.000     0.000    24.000
   08/31/2012 02:45:00      0.000     0.000     0.000    24.000
   08/31/2012 03:00:00      0.000     0.000     0.000    24.000
   08/31/2012 03:15:00      0.000     0.000     0.000    24.000
   08/31/2012 03:30:00      0.000     0.000     0.000    24.000
   08/31/2012 03:45:00      0.000     0.000     0.000    24.000
   08/31/2012 04:00:00      0.000     0.000     0.000    24.000
   08/31/2012 04:15:00      0.000     0.000     0.000    24.000
   08/31/2012 04:30:00      0.000     0.000     0.000    24.000
   08/31/2012 04:45:00      0.000     0.000     0.000    24.000
   08/31/2012 05:00:00      0.000     0.000     0.000    24.000
   08/31/2012 05:15:00      0.000     0.000     0.000    24.000
   08/31/2012 05:30:00      0.000     0.000     0.000    24.000
   08/31/2012 05:45:00      0.000     0.000     0.000    24.000
   08/31/2012 06:00:00      0.000     0.000     0.000    24.000
   08/31/2012 06:15:00      0.000     0.000     0.000    24.000
   08/31/2012 06:30:00      0.000     0.000     0.000    24.000
   08/31/2012 06:45:00      0.000     0.000     0.000    24.000
   08/31/2012 07:00:00      0.000     0.000     0.000    24.000
   08/31/2012 07:15:00      0.000     0.000     0.000    24.000
   08/31/2012 07:30:00      0.000     0.000     0.000    24.000
   08/31/2012 07:45:00      0.000     0.000     0.000    24.000
   08/31/2012 08:00:00      0.000     0.000     0.000    24.000
   08/31/2012 08:15:00      0.000     0.000     0.000    24.000
   08/31/2012 08:30:00      0.000     0.000     0.000    24.000
   08/31/2012 08:45:00      0.000     0.000     0.000    24.000
   08/31/2012 09:00:00      0.000     0.000     0.000    24.000
   08/31/2012 09:15:00      0.000     0.000     0.000    24.000
   08/31/2012 09:30:00      0.000     0.000     0.000    24.000
   08/31/2012 09:45:00      0.000     0.000     0.000    24.000
   08/31/2012 10:00:00      0.000     0.000     0.000    24.000
   08/31/2012 10:15:00      0.000     0.000     0.000    24.000
   08/31/2012 10:30:00      0.000     0.000     0.000    24.000
   08/31/2012 10:45:00      0.000     0.000     0.000    24.000
   08/31/2012 11:00:00      0.000     0.000     0.000    24.000
   08/31/2012 11:15:00      0.000     0.000     0.000    24.000
   08/31/2012 11:30:00      0.000     0.000     0.000    24.000
   08/31/2012 11:45:00      0.000     0.000     0.000    24.000
   08/31/2012 12:00:00      0.000     0.000     0.000    24.000
   08/31/2012 12:15:00      0.000     0.000     0.000    24.000
   08/31/2012 12:30:00      0.000     0.000     0.000    24.000
   08/31/2012 12:45:00      0.000     0.000     0.000    24.000
   08/31/2012 13:00:00      0.000     0.000     0.000    24.000
   08/31/2012 13:15:00      0.000     0.000     0.000    24.000
   08/31/2012 13:30:00      0.000     0.000     0.000    24.000
   08/31/2012 13:45:00      0.000     0.000     0.000    24.000
   08/31/2012 14:00:00      0.000     0.000     0.000    24.000
   08/31/2012 14:15:00      0.000     0.000     0.000    24.000
   08/31/2012 14:30:00      0.000     0.000     0.000    24.000
   08/31/2012 14:45:00      0.000     0.000     0.000    24.000
   08/31/2012 15:00:00      0.000     0.000     0.000    24.000
   08/31/2012 15:15:00      0.000     0.000     0.000    24.000
   08/31/2012 15:30:00      0.000     0.000     0.000    24.000
   08/31/2012 15:45:00      0.000     0.000     0.000    24.000
   08/31/2012 16:00:00      0.000     0.000     0.000    24.000
   08/31/2012 16:15:00      0.000     0.000     0.000    24.000
   08/31/2012 16:30:00      0.000     0.000     0.000    24.000
   08/31/2012 16:45:00      0.000     0.000     0.000    24.000
   08/31/2012 17:00:00      0.000     0.000     0.000    24.000
   08/31/2012 17:15:00      0.000     0.000     0.000    24.000
   08/31/2012 17:30:00      0.000     0.000     0.000    24.000
   08/31/2012 17:45:00      0.000     0.000     0.000    24.000
   08/31/2012 18:00:00      0.000     0.000     0.000    24.000
   08/31/2012 18:15:00      0.000     0.000     0.000    24.000
   08/31/2012 18:30:00      0.000     0.000     0.000    24.000
   08/31/2012 18:45:00      0.000     0.000     0.000    24.000
   08/31/2012 19:00:00      0.000     0.000     0.000    24.000
   08/31/2012 19:15:00      0.000     0.000     0.000    24.000
   08/31/2012 19:30:00      0.000     0.000     0.000    24.000
   08/31/2012 19:45:00      0.000     0.000     0.000    24.000
   08/31/2012 20:00:00      0.000     0.000     0.000    24.000
   08/31/2012 20:15:00      0.000     0.000     0.000    24.000
   08/31/2012 20:30:00      0.000     0.000     0.000    24.000
   08/31/2012 20:45:00      0.000     0.000     0.000    24.000
   08/31/2012 21:00:00      0.000     0.000     0.000    24.000
   08/31/2012 21:15:00      0.000     0.000     0.000    24.000
   08/31/2012 21:30:00      0.000     0.000     0.000    24.000
   08/31/2012 21:45:00      0.000     0.000     0.000    24.000
   08/31/2012 22:00:00      0.000     0.000     0.000    24.000
   08/31/2012 22:15:00      0.000     0.000     0.000    24.000
   08/31/2012 22:30:00      0.000     0.000     0.000    24.000
   08/31/2012 22:45:00      0.000     0.000     0.000    24.000
   08/31/2012 23:00:00      0.000     0.000     0.000    24.000
   08/31/2012 23:15:00      0.000     0.000     0.000    24.000
   08/31/2012 23:30:00      0.000     0.000     0.000    24.000
   08/31/2012 23:45:00      0.000     0.000     0.000    24.000
   09/01/2012 00:00:00      0.000     0.000     0.000    24.000
   09/01/2012 00:15:00      0.000     0.000     0.000    24.000
   09/01/2012 00:30:00      0.000     0.000     0.000    24.000
   09/01/2012 00:45:00      0.000     0.000     0.000    24.000
   09/01/2012 01:00:00      0.000     0.000     0.000    24.000
   09/01/2012 01:15:00      0.000     0.000     0.000    24.000
   09/01/2012 01:30:00      0.000     0.000     0.000    24.000
   09/01/2012 01:45:00      0.000     0.000     0.000    24.000
   09/01/2012 02:00:00      0.000     0.000     0.000    24.000
   09/01/2012 02:15:00      0.000     0.000     0.000    24.000
   09/01/2012 02:30:00      0.000     0.000     0.000    24.000
   09/01/2012 02:45:00      0.000     0.000     0.000    24.000
   09/01/2012 03:00:00      0.000     0.000     0.000    24.000
   09/01/2012 03:15:00      0.000     0.000     0.000    24.000
   09/01/2012 03:30:00      0.000     0.000     0.000    24.000
   09/01/2012 03:45:00      0.000     0.000     0.000    24.000
   09/01/2012 04:00:00      0.000     0.000     0.000    24.000
   09/01/2012 04:15:00      0.000     0.000     0.000    24.000
   09/01/2012 04:30:00      0.000     0.000     0.000    24.000
   09/01/2012 04:45:00      0.000     0.000     0.000    24.000
   09/01/2012 05:00:00      0.000     0.000     0.000    24.000
   09/01/2012 05:15:00      0.000     0.000     0.000    24.000
   09/01/2012 05:30:00      0.000     0.000     0.000    24.000
   09/01/2012 05:45:00      0.000     0.000     0.000    24.000
   09/01/2012 06:00:00      0.000     0.000     0.000    24.000
   09/01/2012 06:15:00      0.000     0.000     0.000    24.000
   09/01/2012 06:30:00      0.000     0.000     0.000    24.000
   09/01/2012 06:45:00      0.000     0.000     0.000    24.000
   09/01/2012 07:00:00      0.000     0.000     0.000    24.000
   09/01/2012 07:15:00      0.000     0.000     0.000    24.000
   09/01/2012 07:30:00      0.000     0.000     0.000    24.000
   09/01/2012 07:45:00      0.000     0.000     0.000    24.000
   09/01/2012 08:00:00      0.000     0.000     0.000    24.000
   09/01/2012 08:15:00      0.000     0.000     0.000    24.000
   09/01/2012 08:30:00      0.000     0.000     0.000    24.000
   09/01/2012 08:45:00      0.000     0.000     0.000    24.000
   09/01/2012 09:00:00      0.000     0.000     0.000    24.000
   09/01/2012 09:15:00      0.000     0.000     0.000    24.000
   09/01/2012 09:30:00      0.000     0.000     0.000    24.000
   09/01/2012 09:45:00      0.000     0.000     0.000    24.000
   09/01/2012 10:00:00      0.000     0.000     0.000    24.000
   09/01/2012 10:15:00      0.000     0.000     0.000    24.000
   09/01/2012 10:30:00      0.000     0.000     0.000    24.000
   09/01/2012 10:45:00      0.000     0.000     0.000    24.000
   09/01/2012 11:00:00      0.000     0.000     0.000    24.000
   09/01/2012 11:15:00      0.000     0.000     0.000    24.000
   09/01/2012 11:30:00      0.000     0.000     0.000    24.000
   09/01/2012 11:45:00      0.000     0.000     0.000    24.000
   09/01/2012 12:00:00      0.000     0.000     0.000    24.000
   09/01/2012 12:15:00      0.000     0.000     0.000    24.000
   09/01/2012 12:30:00      0.000     0.000     0.000    24.000
   09/01/2012 12:45:00      0.000     0.000     0.000    24.000
   09/01/2012 13:00:00      0.000     0.000     0.000    24.000
   09/01/2012 13:15:00      0.000     0.000     0.000    24.000
   09/01/2012 13:30:00      0.000     0.000     0.000    24.000
   09/01/2012 13:45:00      0.000     0.000     0.000    24.000
   09/01/2012 14:00:00      0.000     0.000     0.000    24.000
   09/01/2012 14:15:00      0.000     0.000     0.000    24.000
   09/01/2012 14:30:00      0.000     0.000     0.000    24.000
   09/01/2012 14:45:00      0.000     0.000     0.000    24.000
   09/01/2012 15:00:00      0.000     0.000     0.000    24.000
   09/01/2012 15:15:00      0.000     0.000     0.000    24.000
   09/01/2012 15:30:00      0.000     0.000     0.000    24.000
   09/01/2012 15:45:00      0.000     0.000     0.000    24.000
   09/01/2012 16:00:00      0.000     0.000     0.000    24.000
   09/01/2012 16:15:00      0.000     0.000     0.000    24.000
   09/01/2012 16:30:00      0.000     0.000     0.000    24.000
   09/01/2012 16:45:00      0.000     0.000     0.000    24.000
   09/01/2012 17:00:00      0.000     0.000     0.000    24.000
   09/01/2012 17:15:00      0.000     0.000     0.000    24.000
   09/01/2012 17:30:00      0.000     0.000     0.000    24.000
   09/01/2012 17:45:00      0.000     0.000     0.000    24.000
   09/01/2012 18:00:00      0.000     0.000     0.000    24.000
   09/01/2012 18:15:00      0.000     0.000     0.000    24.000
   09/01/2012 18:30:00      0.000     0.000     0.000    24.000
   09/01/2012 18:45:00      0.000     0.000     0.000    24.000
   09/01/2012 19:00:00      0.000     0.000     0.000    24.000
   09/01/2012 19:15:00      0.000     0.000     0.000    24.000
   09/01/2012 19:30:00      0.000     0.000     0.000    24.000
   09/01/2012 19:45:00      0.000     0.000     0.000    24.000
   09/01/2012 20:00:00      0.000     0.000     0.000    24.000
   09/01/2012 20:15:00      0.000     0.000     0.000    24.000
   09/01/2012 20:30:00      0.000     0.000     0.000    24.000
   09/01/2012 20:45:00      0.000     0.000     0.000    24.000
   09/01/2012 21:00:00      0.000     0.000     0.000    24.000
   09/01/2012 21:15:00      0.000     0.000     0.000    24.000
   09/01/2012 21:30:00      0.000     0.000     0.000    24.000
   09/01/2012 21:45:00      0.000     0.000     0.000    24.000
   09/01/2012 22:00:00      0.000     0.000     0.000    24.000
   09/01/2012 22:15:00      0.000     0.000     0.000    24.000
   09/01/2012 22:30:00      0.000     0.000     0.000    24.000
   09/01/2012 22:45:00      0.000     0.000     0.000    24.000
   09/01/2012 23:00:00      0.000     0.000     0.000    24.000
   09/01/2012 23:15:00      0.000     0.000     0.000    24.000
   09/01/2012 23:30:00      0.000     0.000     0.000    24.000
   09/01/2012 23:45:00      0.000     0.000     0.000    24.000
   09/02/2012 00:00:00      0.000     0.000     0.000    24.000
   09/02/2012 00:15:00      0.000     0.000     0.000    24.000
   09/02/2012 00:30:00      0.000     0.000     0.000    24.000
   09/02/2012 00:45:00      0.000     0.000     0.000    24.000
   09/02/2012 01:00:00      0.000     0.000     0.000    24.000
   09/02/2012 01:15:00      0.000     0.000     0.000    24.000
   09/02/2012 01:30:00      0.000     0.000     0.000    24.000
   09/02/2012 01:45:00      0.000     0.000     0.000    24.000
   09/02/2012 02:00:00      0.000     0.000     0.000    24.000
   09/02/2012 02:15:00      0.000     0.000     0.000    24.000
   09/02/2012 02:30:00      0.000     0.000     0.000    24.000
   09/02/2012 02:45:00      0.000     0.000     0.000    24.000
   09/02/2012 03:00:00      0.000     0.000     0.000    24.000
   09/02/2012 03:15:00      0.000     0.000     0.000    24.000
   09/02/2012 03:30:00      0.000     0.000     0.000    24.000
   09/02/2012 03:45:00      0.000     0.000     0.000    24.000
   09/02/2012 04:00:00      0.000     0.000     0.000    24.000
   09/02/2012 04:15:00      0.000     0.000     0.000    24.000
   09/02/2012 04:30:00      0.000     0.000     0.000    24.000
   09/02/2012 04:45:00      0.000     0.000     0.000    24.000
   09/02/2012 05:00:00      0.000     0.000     0.000    24.000
   09/02/2012 05:15:00      0.000     0.000     0.000    24.000
   09/02/2012 05:30:00      0.000     0.000     0.000    24.000
   09/02/2012 05:45:00      0.000     0.000     0.000    24.000
   09/02/2012 06:00:00      0.000     0.000     0.000    24.000
   09/02/2012 06:15:00      0.000     0.000     0.000    24.000
   09/02/2012 06:30:00      0.000     0.000     0.000    24.000
   09/02/2012 06:45:00      0.000     0.000     0.000    24.000
   09/02/2012 07:00:00      0.000     0.000     0.000    24.000
   09/02/2012 07:15:00      0.000     0.000     0.000    24.000
   09/02/2012 07:30:00      0.000     0.000     0.000    24.000
   09/02/2012 07:45:00      0.000     0.000     0.000    24.000
   09/02/2012 08:00:00      0.000     0.000     0.000    24.000
   09/02/2012 08:15:00      0.000     0.000     0.000    24.000
   09/02/2012 08:30:00      0.000     0.000     0.000    24.000
   09/02/2012 08:45:00      0.000     0.000     0.000    24.000
   09/02/2012 09:00:00      0.000     0.000     0.000    24.000
   09/02/2012 09:15:00      0.000     0.000     0.000    24.000
   09/02/2012 09:30:00      0.000     0.000     0.000    24.000
   09/02/2012 09:45:00      0.000     0.000     0.000    24.000
   09/02/2012 10:00:00      0.000     0.000     0.000    24.000
   09/02/2012 10:15:00      0.000     0.000     0.000    24.000
[...]
   09/02/2012 18:30:00     14.770     0.000     0.118    24.118
   09/02/2012 18:45:00     11.943     0.000     0.096    24.096
   09/02/2012 19:00:00      9.779     0.000     0.078    24.078
   09/02/2012 19:15:00      8.090     0.000     0.065    24.065
   09/02/2012 19:30:00      6.751     0.000     0.054    24.054
   09/02/2012 19:45:00      5.682     0.000     0.046    24.046
   09/02/2012 20:00:00      4.819     0.000     0.039    24.039
   09/02/2012 20:15:00      4.120     0.000     0.033    24.033
   09/02/2012 20:30:00      3.549     0.000     0.028    24.028
   09/02/2012 20:45:00      3.075     0.000     0.025    24.025
   09/02/2012 21:00:00      2.677     0.000     0.021    24.021
   09/02/2012 21:15:00      2.342     0.000     0.019    24.019
   09/02/2012 21:30:00      2.060     0.000     0.017    24.017
   09/02/2012 21:45:00      1.821     0.000     0.015    24.015
   09/02/2012 22:00:00      1.618     0.000     0.013    24.013
   09/02/2012 22:15:00      1.445     0.000     0.012    24.012
   09/02/2012 22:30:00      1.295     0.000     0.010    24.010
   09/02/2012 22:45:00      1.165     0.000     0.009    24.009
   09/02/2012 23:00:00      1.051     0.000     0.008    24.008
   09/02/2012 23:15:00      0.953     0.000     0.008    24.008
   09/02/2012 23:30:00      0.866     0.000     0.007    24.007
   09/02/2012 23:45:00      0.789     0.000     0.006    24.006
   09/03/2012 00:00:00      0.721     0.000     0.006    24.006
   09/03/2012 00:15:00      0.661     0.000     0.005    24.005
   09/03/2012 00:30:00      0.607     0.000     0.005    24.005
   09/03/2012 00:45:00      0.559     0.000     0.004    24.004
   09/03/2012 01:00:00      0.516     0.000     0.004    24.004
   09/03/2012 01:15:00      0.476     0.000     0.004    24.004
   09/03/2012 01:30:00      0.441     0.000     0.004    24.004
   09/03/2012 01:45:00      0.409     0.000     0.003    24.003
   09/03/2012 02:00:00      0.380     0.000     0.003    24.003
   09/03/2012 02:15:00      0.353     0.000     0.003    24.003
   09/03/2012 02:30:00      0.329     0.000     0.003    24.003
   09/03/2012 02:45:00      0.307     0.000     0.002    24.002
   09/03/2012 03:00:00      0.287     0.000     0.002    24.002
   09/03/2012 03:15:00      0.268     0.000     0.002    24.002
   09/03/2012 03:30:00      0.251     0.000     0.002    24.002
   09/03/2012 03:45:00      0.236     0.000     0.002    24.002
   09/03/2012 04:00:00      0.221     0.000     0.002    24.002
   09/03/2012 04:15:00      0.208     0.000     0.002    24.002
   09/03/2012 04:30:00      0.196     0.000     0.002    24.002
   09/03/2012 04:45:00      0.184     0.000     0.001    24.001
   09/03/2012 05:00:00      0.174     0.000     0.001    24.001
   09/03/2012 05:15:00      0.164     0.000     0.001    24.001
   09/03/2012 05:30:00      0.155     0.000     0.001    24.001
   09/03/2012 05:45:00      0.147     0.000     0.001    24.001
   09/03/2012 06:00:00      0.139     0.000     0.001    24.001
   09/03/2012 06:15:00      0.132     0.000     0.001    24.001
   09/03/2012 06:30:00      0.125     0.000     0.001    24.001
   09/03/2012 06:45:00      0.119     0.000     0.001    24.001
   09/03/2012 07:00:00      0.113     0.000     0.001    24.001
   09/03/2012 07:15:00      0.107     0.000     0.001    24.001
   09/03/2012 07:30:00      0.102     0.000     0.001    24.001
   09/03/2012 07:45:00      0.097     0.000     0.001    24.001
   09/03/2012 08:00:00      0.093     0.000     0.001    24.001
   09/03/2012 08:15:00      2.156     0.000     0.017    24.017
   09/03/2012 08:30:00     18.005     0.000     0.144    24.144
   09/03/2012 08:45:00     75.605     0.000     0.606    24.606
   09/03/2012 09:00:00    269.158     0.000     1.454    25.454
   09/03/2012 09:15:00    510.048     0.000     2.179    26.179
   09/03/2012 09:30:00    523.162     0.000     2.214    26.214
   09/03/2012 09:45:00    498.080     0.000     2.146    26.146
   09/03/2012 10:00:00    476.592     0.000     2.086    26.086
   09/03/2012 10:15:00    440.505     0.000     1.984    25.984
   09/03/2012 10:30:00    360.235     0.000     1.747    25.747
   09/03/2012 10:45:00    262.902     0.000     1.433    25.433
   09/03/2012 11:00:00    181.578     0.000     1.137    25.137
   09/03/2012 11:15:00    130.223     0.000     0.926    24.926
   09/03/2012 11:30:00    100.059     0.000     0.787    24.787
   09/03/2012 11:45:00     82.508     0.000     0.661    24.661
   09/03/2012 12:00:00     72.303     0.000     0.579    24.579
   09/03/2012 12:15:00     64.939     0.000     0.520    24.520
   09/03/2012 12:30:00     57.923     0.000     0.464    24.464
   09/03/2012 12:45:00     50.986     0.000     0.408    24.408
   09/03/2012 13:00:00     43.835     0.000     0.351    24.351
   09/03/2012 13:15:00     36.787     0.000     0.295    24.295
   09/03/2012 13:30:00     30.112     0.000     0.241    24.241
   09/03/2012 13:45:00     24.322     0.000     0.195    24.195
   09/03/2012 14:00:00     19.577     0.000     0.157    24.157
   09/03/2012 14:15:00     15.832     0.000     0.127    24.127
   09/03/2012 14:30:00     12.861     0.000     0.103    24.103
   09/03/2012 14:45:00     10.550     0.000     0.085    24.085
   09/03/2012 15:00:00      8.735     0.000     0.070    24.070
   09/03/2012 15:15:00      7.288     0.000     0.058    24.058
   09/03/2012 15:30:00      6.128     0.000     0.049    24.049
   09/03/2012 15:45:00      5.191     0.000     0.042    24.042
   09/03/2012 16:00:00      4.430     0.000     0.035    24.035
   09/03/2012 16:15:00      3.831     0.000     0.031    24.031
   09/03/2012 16:30:00      3.445     0.000     0.028    24.028
   09/03/2012 16:45:00      3.300     0.000     0.026    24.026
   09/03/2012 17:00:00      3.365     0.000     0.027    24.027
   09/03/2012 17:15:00      3.605     0.000     0.029    24.029
   09/03/2012 17:30:00      4.010     0.000     0.032    24.032
   09/03/2012 17:45:00      4.590     0.000     0.037    24.037
   09/03/2012 18:00:00      5.392     0.000     0.043    24.043
   09/03/2012 18:15:00      6.527     0.000     0.052    24.052
   09/03/2012 18:30:00      8.133     0.000     0.065    24.065
   09/03/2012 18:45:00     10.791     0.000     0.086    24.086
   09/03/2012 19:00:00     15.298     0.000     0.123    24.123
   09/03/2012 19:15:00     19.919     0.000     0.160    24.160
   09/03/2012 19:30:00     22.178     0.000     0.178    24.178
   09/03/2012 19:45:00     22.337     0.000     0.179    24.179
   09/03/2012 20:00:00     21.264     0.000     0.170    24.170
   09/03/2012 20:15:00     19.498     0.000     0.156    24.156
   09/03/2012 20:30:00     17.378     0.000     0.139    24.139
   09/03/2012 20:45:00     15.164     0.000     0.121    24.121
   09/03/2012 21:00:00     13.007     0.000     0.104    24.104
   09/03/2012 21:15:00     11.022     0.000     0.088    24.088
   09/03/2012 21:30:00      9.327     0.000     0.075    24.075
   09/03/2012 21:45:00      7.895     0.000     0.063    24.063
   09/03/2012 22:00:00      6.695     0.000     0.054    24.054
   09/03/2012 22:15:00      5.699     0.000     0.046    24.046
   09/03/2012 22:30:00      4.872     0.000     0.039    24.039
   09/03/2012 22:45:00      4.189     0.000     0.034    24.034
   09/03/2012 23:00:00      3.625     0.000     0.029    24.029
   09/03/2012 23:15:00      3.152     0.000     0.025    24.025
   09/03/2012 23:30:00      2.752     0.000     0.022    24.022
   09/03/2012 23:45:00      2.414     0.000     0.019    24.019
   09/04/2012 00:00:00      2.127     0.000     0.017    24.017
   09/04/2012 00:15:00      1.882     0.000     0.015    24.015
   09/04/2012 00:30:00      1.674     0.000     0.013    24.013
   09/04/2012 00:45:00      1.494     0.000     0.012    24.012
   09/04/2012 01:00:00      1.339     0.000     0.011    24.011
   09/04/2012 01:15:00      1.205     0.000     0.010    24.010
   09/04/2012 01:30:00      1.087     0.000     0.009    24.009
   09/04/2012 01:45:00      0.985     0.000     0.008    24.008
   09/04/2012 02:00:00      0.895     0.000     0.007    24.007
   09/04/2012 02:15:00      4.236     0.000     0.034    24.034
   09/04/2012 02:30:00     21.499     0.000     0.172    24.172
   09/04/2012 02:45:00     75.130     0.000     0.602    24.602
   09/04/2012 03:00:00    246.341     0.000     1.375    25.375
   09/04/2012 03:15:00    510.757     0.000     2.181    26.181
   09/04/2012 03:30:00    701.994     0.000     2.676    26.676
   09/04/2012 03:45:00    961.972     0.000     3.285    27.285
   09/04/2012 04:00:00   1056.342     0.000     3.494    27.494
   09/04/2012 04:15:00    969.876     0.000     3.303    27.303
   09/04/2012 04:30:00    690.416     0.000     2.647    26.647
   09/04/2012 04:45:00    397.638     0.000     1.859    25.859
   09/04/2012 05:00:00    224.130     0.000     1.297    25.297
   09/04/2012 05:15:00    140.801     0.000     0.971    24.971
   09/04/2012 05:30:00     94.249     0.000     0.755    24.755
   09/04/2012 05:45:00     66.918     0.000     0.536    24.536
   09/04/2012 06:00:00     49.602     0.000     0.397    24.397
   09/04/2012 06:15:00     37.720     0.000     0.302    24.302
   09/04/2012 06:30:00     29.258     0.000     0.234    24.234
   09/04/2012 06:45:00     23.036     0.000     0.185    24.185
   09/04/2012 07:00:00     18.368     0.000     0.147    24.147
   09/04/2012 07:15:00     14.824     0.000     0.119    24.119
   09/04/2012 07:30:00     12.072     0.000     0.097    24.097
   09/04/2012 07:45:00      9.943     0.000     0.080    24.080
   09/04/2012 08:00:00      8.265     0.000     0.066    24.066
   09/04/2012 08:15:00      6.923     0.000     0.055    24.055
   09/04/2012 08:30:00      5.843     0.000     0.047    24.047
   09/04/2012 08:45:00      4.965     0.000     0.040    24.040
   09/04/2012 09:00:00      4.250     0.000     0.034    24.034
   09/04/2012 09:15:00      3.665     0.000     0.029    24.029
   09/04/2012 09:30:00      3.178     0.000     0.025    24.025
   09/04/2012 09:45:00      2.767     0.000     0.022    24.022
   09/04/2012 10:00:00      2.420     0.000     0.019    24.019
   09/04/2012 10:15:00      2.126     0.000     0.017    24.017
   09/04/2012 10:30:00      1.877     0.000     0.015    24.015
   09/04/2012 10:45:00      1.666     0.000     0.013    24.013
   09/04/2012 11:00:00      1.486     0.000     0.012    24.012
   09/04/2012 11:15:00      1.331     0.000     0.011    24.011
   09/04/2012 11:30:00      1.197     0.000     0.010    24.010
   09/04/2012 11:45:00      1.080     0.000     0.009    24.009
   09/04/2012 12:00:00      0.978     0.000     0.008    24.008
   09/04/2012 12:15:00      1.335     0.000     0.011    24.011
   09/04/2012 12:30:00      3.392     0.000     0.027    24.027
   09/04/2012 12:45:00      8.837     0.000     0.071    24.071
   09/04/2012 13:00:00     19.948     0.000     0.160    24.160
   09/04/2012 13:15:00     93.519     0.000     0.749    24.749
   09/04/2012 13:30:00    459.537     0.000     2.038    26.038
   09/04/2012 13:45:00   1203.389     0.000     3.809    27.809
   09/04/2012 14:00:00   1545.830     0.000     4.503    28.503
   09/04/2012 14:15:00   1562.912     0.000     4.537    28.537
   09/04/2012 14:30:00   1090.683     0.000     3.569    27.569
   09/04/2012 14:45:00    573.450     0.000     2.349    26.349
   09/04/2012 15:00:00    306.869     0.000     1.579    25.579
   09/04/2012 15:15:00    188.793     0.000     1.165    25.165
   09/04/2012 15:30:00    125.388     0.000     0.904    24.904
   09/04/2012 15:45:00     87.683     0.000     0.702    24.702
   09/04/2012 16:00:00     64.084     0.000     0.513    24.513
   09/04/2012 16:15:00     48.018     0.000     0.385    24.385
   09/04/2012 16:30:00     36.511     0.000     0.293    24.293
   09/04/2012 16:45:00     28.177     0.000     0.226    24.226
   09/04/2012 17:00:00     22.057     0.000     0.177    24.177
   09/04/2012 17:15:00    150.464     0.000     1.012    25.012
   09/04/2012 17:30:00   1015.424     0.000     3.404    27.404
   09/04/2012 17:45:00   3299.875     0.000     7.604    31.604
   09/04/2012 18:00:00   4029.231     0.000     8.772    32.772
   09/04/2012 18:15:00   3773.226     0.000     8.367    32.367
   09/04/2012 18:30:00   2333.934     0.000     5.965    29.965
   09/04/2012 18:45:00   1300.379     0.000     4.010    28.010
   09/04/2012 19:00:00    941.967     0.000     3.240    27.240
   09/04/2012 19:15:00    743.540     0.000     2.777    26.777
   09/04/2012 19:30:00    525.868     0.000     2.222    26.222
   09/04/2012 19:45:00    321.304     0.000     1.625    25.625
   09/04/2012 20:00:00    190.960     0.000     1.173    25.173
   09/04/2012 20:15:00    118.215     0.000     0.872    24.872
   09/04/2012 20:30:00     77.330     0.000     0.620    24.620
   09/04/2012 20:45:00     53.500     0.000     0.429    24.429
   09/04/2012 21:00:00     38.472     0.000     0.308    24.308
   09/04/2012 21:15:00     28.579     0.000     0.229    24.229
   09/04/2012 21:30:00     21.847     0.000     0.175    24.175
   09/04/2012 21:45:00     17.106     0.000     0.137    24.137
   09/04/2012 22:00:00     13.629     0.000     0.109    24.109
   09/04/2012 22:15:00     11.046     0.000     0.088    24.088
   09/04/2012 22:30:00      9.076     0.000     0.073    24.073
   09/04/2012 22:45:00      7.538     0.000     0.060    24.060
   09/04/2012 23:00:00      6.317     0.000     0.051    24.051
   09/04/2012 23:15:00      5.340     0.000     0.043    24.043
   09/04/2012 23:30:00      4.548     0.000     0.036    24.036
   09/04/2012 23:45:00      3.905     0.000     0.031    24.031
   09/05/2012 00:00:00      3.375     0.000     0.027    24.027
   09/05/2012 00:15:00      2.932     0.000     0.023    24.023
   09/05/2012 00:30:00      2.558     0.000     0.020    24.020
   09/05/2012 00:45:00      2.242     0.000     0.018    24.018
   09/05/2012 01:00:00      1.975     0.000     0.016    24.016
   09/05/2012 01:15:00      1.748     0.000     0.014    24.014
   09/05/2012 01:30:00      1.555     0.000     0.012    24.012
   09/05/2012 01:45:00      1.390     0.000     0.011    24.011
   09/05/2012 02:00:00      1.248     0.000     0.010    24.010
   09/05/2012 02:15:00      1.124     0.000     0.009    24.009
   09/05/2012 02:30:00      1.017     0.000     0.008    24.008
   09/05/2012 02:45:00      0.922     0.000     0.007    24.007
   09/05/2012 03:00:00      0.839     0.000     0.007    24.007
   09/05/2012 03:15:00      0.765     0.000     0.006    24.006
   09/05/2012 03:30:00      0.700     0.000     0.006    24.006
   09/05/2012 03:45:00      0.642     0.000     0.005    24.005
   09/05/2012 04:00:00      0.591     0.000     0.005    24.005
   09/05/2012 04:15:00      0.544     0.000     0.004    24.004
   09/05/2012 04:30:00      0.502     0.000     0.004    24.004
   09/05/2012 04:45:00      0.465     0.000     0.004    24.004
   09/05/2012 05:00:00      0.430     0.000     0.003    24.003
   09/05/2012 05:15:00      0.399     0.000     0.003    24.003
   09/05/2012 05:30:00      0.371     0.000     0.003    24.003
   09/05/2012 05:45:00      0.345     0.000     0.003    24.003
   09/05/2012 06:00:00      0.322     0.000     0.003    24.003
   09/05/2012 06:15:00      0.300     0.000     0.002    24.002
   09/05/2012 06:30:00      0.281     0.000     0.002    24.002
   09/05/2012 06:45:00      0.263     0.000     0.002    24.002
   09/05/2012 07:00:00      0.246     0.000     0.002    24.002
   09/05/2012 07:15:00      0.231     0.000     0.002    24.002
   09/05/2012 07:30:00      0.217     0.000     0.002    24.002
   09/05/2012 07:45:00      0.204     0.000     0.002    24.002
   09/05/2012 08:00:00      0.192     0.000     0.002    24.002
   09/05/2012 08:15:00      0.181     0.000     0.001    24.001
   09/05/2012 08:30:00      0.171     0.000     0.001    24.001
   09/05/2012 08:45:00      0.161     0.000     0.001    24.001
   09/05/2012 09:00:00      0.152     0.000     0.001    24.001
   09/05/2012 09:15:00      0.144     0.000     0.001    24.001
   09/05/2012 09:30:00      0.137     0.000     0.001    24.001
   09/05/2012 09:45:00      0.130     0.000     0.001    24.001
   09/05/2012 10:00:00      0.123     0.000     0.001    24.001
   09/05/2012 10:15:00      0.117     0.000     0.001    24.001
   09/05/2012 10:30:00      0.111     0.000     0.001    24.001
   09/05/2012 10:45:00      0.106     0.000     0.001    24.001
   09/05/2012 11:00:00      0.101     0.000     0.001    24.001
   09/05/2012 11:15:00      0.096     0.000     0.001    24.001
   09/05/2012 11:30:00      0.091     0.000     0.001    24.001
   09/05/2012 11:45:00      0.087     0.000     0.001    24.001
   09/05/2012 12:00:00      0.083     0.000     0.001    24.001
   09/05/2012 12:15:00      0.080     0.000     0.001    24.001
   09/05/2012 12:30:00      0.076     0.000     0.001    24.001
   09/05/2012 12:45:00      0.073     0.000     0.001    24.001
   09/05/2012 13:00:00      0.070     0.000     0.001    24.001
   09/05/2012 13:15:00      0.071     0.000     0.001    24.001
   09/05/2012 13:30:00      0.081     0.000     0.001    24.001
   09/05/2012 13:45:00      0.103     0.000     0.001    24.001
   09/05/2012 14:00:00      0.135     0.000     0.001    24.001
   09/05/2012 14:15:00      0.165     0.000     0.001    24.001
   09/05/2012 14:30:00      0.183     0.000     0.001    24.001
   09/05/2012 14:45:00      0.198     0.000     0.002    24.002
   09/05/2012 15:00:00      0.214     0.000     0.002    24.002
   09/05/2012 15:15:00      0.242     0.000     0.002    24.002
   09/05/2012 15:30:00      0.293     0.000     0.002    24.002
   09/05/2012 15:45:00      0.367     0.000     0.003    24.003
   09/05/2012 16:00:00      0.460     0.000     0.004    24.004
   09/05/2012 16:15:00      0.550     0.000     0.004    24.004
   09/05/2012 16:30:00      0.621     0.000     0.005    24.005
   09/05/2012 16:45:00      0.683     0.000     0.005    24.005
   09/05/2012 17:00:00      0.740     0.000     0.006    24.006
   09/05/2012 17:15:00      0.801     0.000     0.006    24.006
   09/05/2012 17:30:00      0.872     0.000     0.007    24.007
   09/05/2012 17:45:00      0.958     0.000     0.008    24.008
   09/05/2012 18:00:00      1.067     0.000     0.009    24.009
   09/05/2012 18:15:00      1.203     0.000     0.010    24.010
   09/05/2012 18:30:00      1.358     0.000     0.011    24.011
   09/05/2012 18:45:00      1.503     0.000     0.012    24.012
   09/05/2012 19:00:00      1.602     0.000     0.013    24.013
   09/05/2012 19:15:00      1.647     0.000     0.013    24.013
   09/05/2012 19:30:00      1.651     0.000     0.013    24.013
   09/05/2012 19:45:00      1.620     0.000     0.013    24.013
   09/05/2012 20:00:00      1.564     0.000     0.013    24.013
   09/05/2012 20:15:00      1.491     0.000     0.012    24.012
   09/05/2012 20:30:00      1.407     0.000     0.011    24.011
   09/05/2012 20:45:00      1.319     0.000     0.011    24.011
   09/05/2012 21:00:00      1.229     0.000     0.010    24.010
   09/05/2012 21:15:00      1.141     0.000     0.009    24.009
   09/05/2012 21:30:00      1.056     0.000     0.008    24.008
   09/05/2012 21:45:00      0.976     0.000     0.008    24.008
   09/05/2012 22:00:00      0.901     0.000     0.007    24.007
   09/05/2012 22:15:00      0.832     0.000     0.007    24.007
   09/05/2012 22:30:00      0.768     0.000     0.006    24.006
   09/05/2012 22:45:00      0.710     0.000     0.006    24.006
   09/05/2012 23:00:00      0.656     0.000     0.005    24.005
   09/05/2012 23:15:00      0.607     0.000     0.005    24.005
   09/05/2012 23:30:00      0.563     0.000     0.005    24.005
   09/05/2012 23:45:00      0.522     0.000     0.004    24.004
  

  Analysis begun on:  Mon May 21 21:40:08 2018
  Analysis ended on:  Mon May 21 21:40:11 2018
  Total elapsed time: 00:00:03